<routes>
  <vType id="type1" accel="2.6" decel="4.5" sigma="0.5" length="5" maxSpeed="40" minGap="1.5"/>

  <route id="ER1" edges="-2239 -9040 -9045 -E0" />
  <route id="ER2" edges="1656 -9040 -9045 -E0"/>
  <route id="ER3" edges="9039 -9045 -E0"/>
  <route id="ER4" edges="-2239 -9040 -9045 -9052 -9069 -9089 -9092" color="0,0,255"/>
  <route id="ER5" edges="1656 -9040 -9045 -9052 -9069 -9089 -9092" />
  <route id="ER6" edges="9039 -9045 -9052 -9069 -9089 -9092" color="0,1,0"/>
  <route id="ER7" edges="E0 -9052 -9069 -9089 -9092"/>
  <route id="ER8" edges="1656 -9040 -9045 -9052 -9069 9068"/>
  <route id="ER9" edges="-2239 -9040 -9045 -9052 -9069 9068"/>
  <route id="ER10" edges="9039 -9045 -9052 -9069 9068"/>
  <route id="ER11" edges="E0 -9052 -9069 9068"/>
  <route id="ER12" edges="1656 -9040 -9045 -9052 -9069 -E6"/>
  <route id="ER13" edges="-2239 -9040 -9045 -9052 -9069 -E6"/>
  <route id="ER14" edges="9039 -9045 -9052 -9069 -E6"/>
  <route id="ER15" edges="E0 -9052 -9069 -E6"/>
  <route id="WR1" edges="9089 9069 9052 9045 9040 2239" color="1,0,0"/>
  <route id="WR2" edges="E6 9069 9052 9045 9040 9034"/>
  <route id="WR3" edges="-9068 9069 9052 9045 9040 -1656"/>
  <route id="WR4" edges="E0 9045 9040 -1656"/>
  <route id="WR5" edges="9039 9040 2239"/>
  <route id="WR6" edges="9089 9069 9052 9045 -9039"/>
  <route id="WR7" edges="E6 9069 9052 9045 -9039"/>
  <route id="WR8" edges="-9068 9069 9052 9045 -9039"/>
  <route id="WR9" edges="E0 9045 -9039"/>
  <route id="WR10" edges="9089 9069 9052 -E0"/>
  <route id="WR11" edges="-9068 9069 9052 -E0"/>
  <route id="WR12" edges="E6 9069 9052 -E0"/>


    
  <vehicle id="ER1_0" type="type1" route="ER1" depart="0"/>
  <vehicle id="ER2_0" type="type1" route="ER2" depart="0"/>
  <vehicle id="ER3_0" type="type1" route="ER3" depart="0"/>
  <vehicle id="ER4_0" type="type1" route="ER4" depart="0"/>
  <vehicle id="ER5_0" type="type1" route="ER5" depart="0"/>
  <vehicle id="ER6_0" type="type1" route="ER6" depart="0"/>
  <vehicle id="ER7_0" type="type1" route="ER7" depart="0"/>
  <vehicle id="ER8_0" type="type1" route="ER8" depart="0"/>
  <vehicle id="ER9_0" type="type1" route="ER9" depart="0"/>
  <vehicle id="ER10_0" type="type1" route="ER10" depart="0"/>
  <vehicle id="ER11_0" type="type1" route="ER11" depart="0"/>
  <vehicle id="ER12_0" type="type1" route="ER12" depart="0"/>
  <vehicle id="ER13_0" type="type1" route="ER13" depart="0"/>
  <vehicle id="ER14_0" type="type1" route="ER14" depart="0"/>
  <vehicle id="ER15_0" type="type1" route="ER15" depart="0"/>
  <vehicle id="WR1_0" type="type1" route="WR1" depart="0"/>
  <vehicle id="WR2_0" type="type1" route="WR2" depart="0"/>
  <vehicle id="WR3_0" type="type1" route="WR3" depart="0"/>
  <vehicle id="WR4_0" type="type1" route="WR4" depart="0"/>
  <vehicle id="WR5_0" type="type1" route="WR5" depart="0"/>
  <vehicle id="WR6_0" type="type1" route="WR6" depart="0"/>
  <vehicle id="WR7_0" type="type1" route="WR7" depart="0"/>
  <vehicle id="WR8_0" type="type1" route="WR8" depart="0"/>
  <vehicle id="WR9_0" type="type1" route="WR9" depart="0"/>
  <vehicle id="WR10_0" type="type1" route="WR10" depart="0"/>
  <vehicle id="WR11_0" type="type1" route="WR11" depart="0"/>
  <vehicle id="WR12_0" type="type1" route="WR12" depart="0"/>
  <vehicle id="WR1_1" type="type1" route="WR1" depart="12"/>
  <vehicle id="ER4_1" type="type1" route="ER4" depart="16"/>
  <vehicle id="WR1_2" type="type1" route="WR1" depart="24"/>
  <vehicle id="ER4_2" type="type1" route="ER4" depart="32"/>
  <vehicle id="WR1_3" type="type1" route="WR1" depart="36"/>
  <vehicle id="ER5_1" type="type1" route="ER5" depart="38"/>
  <vehicle id="ER4_3" type="type1" route="ER4" depart="48"/>
  <vehicle id="WR1_4" type="type1" route="WR1" depart="48"/>
  <vehicle id="WR5_1" type="type1" route="WR5" depart="50"/>
  <vehicle id="WR1_5" type="type1" route="WR1" depart="60"/>
  <vehicle id="ER4_4" type="type1" route="ER4" depart="64"/>
  <vehicle id="WR1_6" type="type1" route="WR1" depart="72"/>
  <vehicle id="ER5_2" type="type1" route="ER5" depart="76"/>
  <vehicle id="ER4_5" type="type1" route="ER4" depart="80"/>
  <vehicle id="WR1_7" type="type1" route="WR1" depart="84"/>
  <vehicle id="ER4_6" type="type1" route="ER4" depart="96"/>
  <vehicle id="WR1_8" type="type1" route="WR1" depart="96"/>
  <vehicle id="WR5_2" type="type1" route="WR5" depart="100"/>
  <vehicle id="WR6_1" type="type1" route="WR6" depart="100"/>
  <vehicle id="WR1_9" type="type1" route="WR1" depart="108"/>
  <vehicle id="ER4_7" type="type1" route="ER4" depart="112"/>
  <vehicle id="ER5_3" type="type1" route="ER5" depart="114"/>
  <vehicle id="WR1_10" type="type1" route="WR1" depart="120"/>
  <vehicle id="ER4_8" type="type1" route="ER4" depart="128"/>
  <vehicle id="WR1_11" type="type1" route="WR1" depart="132"/>
  <vehicle id="ER4_9" type="type1" route="ER4" depart="144"/>
  <vehicle id="WR1_12" type="type1" route="WR1" depart="144"/>
  <vehicle id="ER6_1" type="type1" route="ER6" depart="150"/>
  <vehicle id="ER9_1" type="type1" route="ER9" depart="150"/>
  <vehicle id="ER13_1" type="type1" route="ER13" depart="150"/>
  <vehicle id="WR2_1" type="type1" route="WR2" depart="150"/>
  <vehicle id="WR3_1" type="type1" route="WR3" depart="150"/>
  <vehicle id="WR5_3" type="type1" route="WR5" depart="150"/>
  <vehicle id="WR10_1" type="type1" route="WR10" depart="150"/>
  <vehicle id="ER5_4" type="type1" route="ER5" depart="152"/>
  <vehicle id="WR1_13" type="type1" route="WR1" depart="156"/>
  <vehicle id="ER4_10" type="type1" route="ER4" depart="160"/>
  <vehicle id="WR1_14" type="type1" route="WR1" depart="168"/>
  <vehicle id="ER4_11" type="type1" route="ER4" depart="176"/>
  <vehicle id="WR1_15" type="type1" route="WR1" depart="180"/>
  <vehicle id="ER5_5" type="type1" route="ER5" depart="190"/>
  <vehicle id="ER4_12" type="type1" route="ER4" depart="192"/>
  <vehicle id="WR1_16" type="type1" route="WR1" depart="192"/>
  <vehicle id="WR5_4" type="type1" route="WR5" depart="200"/>
  <vehicle id="WR6_2" type="type1" route="WR6" depart="200"/>
  <vehicle id="WR1_17" type="type1" route="WR1" depart="204"/>
  <vehicle id="ER4_13" type="type1" route="ER4" depart="208"/>
  <vehicle id="WR1_18" type="type1" route="WR1" depart="216"/>
  <vehicle id="ER4_14" type="type1" route="ER4" depart="224"/>
  <vehicle id="ER5_6" type="type1" route="ER5" depart="228"/>
  <vehicle id="WR1_19" type="type1" route="WR1" depart="228"/>
  <vehicle id="ER4_15" type="type1" route="ER4" depart="240"/>
  <vehicle id="WR1_20" type="type1" route="WR1" depart="240"/>
  <vehicle id="WR5_5" type="type1" route="WR5" depart="250"/>
  <vehicle id="WR1_21" type="type1" route="WR1" depart="252"/>
  <vehicle id="ER4_16" type="type1" route="ER4" depart="256"/>
  <vehicle id="WR1_22" type="type1" route="WR1" depart="264"/>
  <vehicle id="ER5_7" type="type1" route="ER5" depart="266"/>
  <vehicle id="ER4_17" type="type1" route="ER4" depart="272"/>
  <vehicle id="WR1_23" type="type1" route="WR1" depart="276"/>
  <vehicle id="ER4_18" type="type1" route="ER4" depart="288"/>
  <vehicle id="WR1_24" type="type1" route="WR1" depart="288"/>
  <vehicle id="ER1_1" type="type1" route="ER1" depart="300"/>
  <vehicle id="ER2_1" type="type1" route="ER2" depart="300"/>
  <vehicle id="ER3_1" type="type1" route="ER3" depart="300"/>
  <vehicle id="ER6_2" type="type1" route="ER6" depart="300"/>
  <vehicle id="ER7_1" type="type1" route="ER7" depart="300"/>
  <vehicle id="ER8_1" type="type1" route="ER8" depart="300"/>
  <vehicle id="ER9_2" type="type1" route="ER9" depart="300"/>
  <vehicle id="ER10_1" type="type1" route="ER10" depart="300"/>
  <vehicle id="ER11_1" type="type1" route="ER11" depart="300"/>
  <vehicle id="ER12_1" type="type1" route="ER12" depart="300"/>
  <vehicle id="ER13_2" type="type1" route="ER13" depart="300"/>
  <vehicle id="ER14_1" type="type1" route="ER14" depart="300"/>
  <vehicle id="ER15_1" type="type1" route="ER15" depart="300"/>
  <vehicle id="WR1_25" type="type1" route="WR1" depart="300"/>
  <vehicle id="WR2_2" type="type1" route="WR2" depart="300"/>
  <vehicle id="WR3_2" type="type1" route="WR3" depart="300"/>
  <vehicle id="WR4_1" type="type1" route="WR4" depart="300"/>
  <vehicle id="WR5_6" type="type1" route="WR5" depart="300"/>
  <vehicle id="WR6_3" type="type1" route="WR6" depart="300"/>
  <vehicle id="WR7_1" type="type1" route="WR7" depart="300"/>
  <vehicle id="WR8_1" type="type1" route="WR8" depart="300"/>
  <vehicle id="WR9_1" type="type1" route="WR9" depart="300"/>
  <vehicle id="WR10_2" type="type1" route="WR10" depart="300"/>
  <vehicle id="WR11_1" type="type1" route="WR11" depart="300"/>
  <vehicle id="WR12_1" type="type1" route="WR12" depart="300"/>
  <vehicle id="ER4_19" type="type1" route="ER4" depart="304"/>
  <vehicle id="ER5_8" type="type1" route="ER5" depart="304"/>
  <vehicle id="WR1_26" type="type1" route="WR1" depart="312"/>
  <vehicle id="WR1_27" type="type1" route="WR1" depart="321"/>
  <vehicle id="WR1_28" type="type1" route="WR1" depart="330"/>
  <vehicle id="ER4_20" type="type1" route="ER4" depart="338"/>
  <vehicle id="WR1_29" type="type1" route="WR1" depart="339"/>
  <vehicle id="WR1_30" type="type1" route="WR1" depart="348"/>
  <vehicle id="WR1_31" type="type1" route="WR1" depart="357"/>
  <vehicle id="WR1_32" type="type1" route="WR1" depart="366"/>
  <vehicle id="ER4_21" type="type1" route="ER4" depart="372"/>
  <vehicle id="ER6_3" type="type1" route="ER6" depart="375"/>
  <vehicle id="WR1_33" type="type1" route="WR1" depart="375"/>
  <vehicle id="WR6_4" type="type1" route="WR6" depart="375"/>
  <vehicle id="WR1_34" type="type1" route="WR1" depart="384"/>
  <vehicle id="WR1_35" type="type1" route="WR1" depart="393"/>
  <vehicle id="WR1_36" type="type1" route="WR1" depart="402"/>
  <vehicle id="ER4_22" type="type1" route="ER4" depart="406"/>
  <vehicle id="WR1_37" type="type1" route="WR1" depart="411"/>
  <vehicle id="WR1_38" type="type1" route="WR1" depart="420"/>
  <vehicle id="WR1_39" type="type1" route="WR1" depart="429"/>
  <vehicle id="WR1_40" type="type1" route="WR1" depart="438"/>
  <vehicle id="ER4_23" type="type1" route="ER4" depart="440"/>
  <vehicle id="WR1_41" type="type1" route="WR1" depart="447"/>
  <vehicle id="ER6_4" type="type1" route="ER6" depart="450"/>
  <vehicle id="ER10_2" type="type1" route="ER10" depart="450"/>
  <vehicle id="ER14_2" type="type1" route="ER14" depart="450"/>
  <vehicle id="WR2_3" type="type1" route="WR2" depart="450"/>
  <vehicle id="WR3_3" type="type1" route="WR3" depart="450"/>
  <vehicle id="WR4_2" type="type1" route="WR4" depart="450"/>
  <vehicle id="WR6_5" type="type1" route="WR6" depart="450"/>
  <vehicle id="WR10_3" type="type1" route="WR10" depart="450"/>
  <vehicle id="ER5_9" type="type1" route="ER5" depart="454"/>
  <vehicle id="WR1_42" type="type1" route="WR1" depart="456"/>
  <vehicle id="WR1_43" type="type1" route="WR1" depart="465"/>
  <vehicle id="ER4_24" type="type1" route="ER4" depart="474"/>
  <vehicle id="WR1_44" type="type1" route="WR1" depart="474"/>
  <vehicle id="WR1_45" type="type1" route="WR1" depart="483"/>
  <vehicle id="WR1_46" type="type1" route="WR1" depart="492"/>
  <vehicle id="WR1_47" type="type1" route="WR1" depart="501"/>
  <vehicle id="ER4_25" type="type1" route="ER4" depart="508"/>
  <vehicle id="WR1_48" type="type1" route="WR1" depart="510"/>
  <vehicle id="WR1_49" type="type1" route="WR1" depart="519"/>
  <vehicle id="ER6_5" type="type1" route="ER6" depart="525"/>
  <vehicle id="WR6_6" type="type1" route="WR6" depart="525"/>
  <vehicle id="WR1_50" type="type1" route="WR1" depart="528"/>
  <vehicle id="WR1_51" type="type1" route="WR1" depart="537"/>
  <vehicle id="ER4_26" type="type1" route="ER4" depart="542"/>
  <vehicle id="WR1_52" type="type1" route="WR1" depart="546"/>
  <vehicle id="WR1_53" type="type1" route="WR1" depart="555"/>
  <vehicle id="WR1_54" type="type1" route="WR1" depart="564"/>
  <vehicle id="WR1_55" type="type1" route="WR1" depart="573"/>
  <vehicle id="ER4_27" type="type1" route="ER4" depart="576"/>
  <vehicle id="WR1_56" type="type1" route="WR1" depart="582"/>
  <vehicle id="WR1_57" type="type1" route="WR1" depart="591"/>
  <vehicle id="ER1_2" type="type1" route="ER1" depart="600"/>
  <vehicle id="ER2_2" type="type1" route="ER2" depart="600"/>
  <vehicle id="ER3_2" type="type1" route="ER3" depart="600"/>
  <vehicle id="ER6_6" type="type1" route="ER6" depart="600"/>
  <vehicle id="ER7_2" type="type1" route="ER7" depart="600"/>
  <vehicle id="ER8_2" type="type1" route="ER8" depart="600"/>
  <vehicle id="ER9_3" type="type1" route="ER9" depart="600"/>
  <vehicle id="ER10_3" type="type1" route="ER10" depart="600"/>
  <vehicle id="ER11_2" type="type1" route="ER11" depart="600"/>
  <vehicle id="ER12_2" type="type1" route="ER12" depart="600"/>
  <vehicle id="ER13_3" type="type1" route="ER13" depart="600"/>
  <vehicle id="ER14_3" type="type1" route="ER14" depart="600"/>
  <vehicle id="ER15_2" type="type1" route="ER15" depart="600"/>
  <vehicle id="WR1_58" type="type1" route="WR1" depart="600"/>
  <vehicle id="WR2_4" type="type1" route="WR2" depart="600"/>
  <vehicle id="WR3_4" type="type1" route="WR3" depart="600"/>
  <vehicle id="WR4_3" type="type1" route="WR4" depart="600"/>
  <vehicle id="WR5_7" type="type1" route="WR5" depart="600"/>
  <vehicle id="WR6_7" type="type1" route="WR6" depart="600"/>
  <vehicle id="WR7_2" type="type1" route="WR7" depart="600"/>
  <vehicle id="WR8_2" type="type1" route="WR8" depart="600"/>
  <vehicle id="WR9_2" type="type1" route="WR9" depart="600"/>
  <vehicle id="WR10_4" type="type1" route="WR10" depart="600"/>
  <vehicle id="WR11_2" type="type1" route="WR11" depart="600"/>
  <vehicle id="WR12_2" type="type1" route="WR12" depart="600"/>
  <vehicle id="ER5_10" type="type1" route="ER5" depart="604"/>
  <vehicle id="WR1_59" type="type1" route="WR1" depart="609"/>
  <vehicle id="ER4_28" type="type1" route="ER4" depart="610"/>
  <vehicle id="WR1_60" type="type1" route="WR1" depart="618"/>
  <vehicle id="ER4_29" type="type1" route="ER4" depart="626"/>
  <vehicle id="ER6_7" type="type1" route="ER6" depart="630"/>
  <vehicle id="WR1_61" type="type1" route="WR1" depart="633"/>
  <vehicle id="ER4_30" type="type1" route="ER4" depart="642"/>
  <vehicle id="WR1_62" type="type1" route="WR1" depart="648"/>
  <vehicle id="ER7_3" type="type1" route="ER7" depart="650"/>
  <vehicle id="ER4_31" type="type1" route="ER4" depart="658"/>
  <vehicle id="ER6_8" type="type1" route="ER6" depart="660"/>
  <vehicle id="WR1_63" type="type1" route="WR1" depart="663"/>
  <vehicle id="ER4_32" type="type1" route="ER4" depart="674"/>
  <vehicle id="WR4_4" type="type1" route="WR4" depart="675"/>
  <vehicle id="WR5_8" type="type1" route="WR5" depart="675"/>
  <vehicle id="WR1_64" type="type1" route="WR1" depart="678"/>
  <vehicle id="ER4_33" type="type1" route="ER4" depart="690"/>
  <vehicle id="ER6_9" type="type1" route="ER6" depart="690"/>
  <vehicle id="WR1_65" type="type1" route="WR1" depart="693"/>
  <vehicle id="ER7_4" type="type1" route="ER7" depart="700"/>
  <vehicle id="WR2_5" type="type1" route="WR2" depart="700"/>
  <vehicle id="ER5_11" type="type1" route="ER5" depart="704"/>
  <vehicle id="ER4_34" type="type1" route="ER4" depart="706"/>
  <vehicle id="WR1_66" type="type1" route="WR1" depart="708"/>
  <vehicle id="ER6_10" type="type1" route="ER6" depart="720"/>
  <vehicle id="ER4_35" type="type1" route="ER4" depart="722"/>
  <vehicle id="WR1_67" type="type1" route="WR1" depart="723"/>
  <vehicle id="ER4_36" type="type1" route="ER4" depart="738"/>
  <vehicle id="WR1_68" type="type1" route="WR1" depart="738"/>
  <vehicle id="ER6_11" type="type1" route="ER6" depart="750"/>
  <vehicle id="ER7_5" type="type1" route="ER7" depart="750"/>
  <vehicle id="ER9_4" type="type1" route="ER9" depart="750"/>
  <vehicle id="ER10_4" type="type1" route="ER10" depart="750"/>
  <vehicle id="ER13_4" type="type1" route="ER13" depart="750"/>
  <vehicle id="ER14_4" type="type1" route="ER14" depart="750"/>
  <vehicle id="WR4_5" type="type1" route="WR4" depart="750"/>
  <vehicle id="WR5_9" type="type1" route="WR5" depart="750"/>
  <vehicle id="WR6_8" type="type1" route="WR6" depart="750"/>
  <vehicle id="WR1_69" type="type1" route="WR1" depart="753"/>
  <vehicle id="ER4_37" type="type1" route="ER4" depart="754"/>
  <vehicle id="WR1_70" type="type1" route="WR1" depart="768"/>
  <vehicle id="ER4_38" type="type1" route="ER4" depart="770"/>
  <vehicle id="ER6_12" type="type1" route="ER6" depart="780"/>
  <vehicle id="WR1_71" type="type1" route="WR1" depart="783"/>
  <vehicle id="ER4_39" type="type1" route="ER4" depart="786"/>
  <vehicle id="WR1_72" type="type1" route="WR1" depart="798"/>
  <vehicle id="ER7_6" type="type1" route="ER7" depart="800"/>
  <vehicle id="WR2_6" type="type1" route="WR2" depart="800"/>
  <vehicle id="ER4_40" type="type1" route="ER4" depart="802"/>
  <vehicle id="ER5_12" type="type1" route="ER5" depart="804"/>
  <vehicle id="ER6_13" type="type1" route="ER6" depart="810"/>
  <vehicle id="WR1_73" type="type1" route="WR1" depart="813"/>
  <vehicle id="ER4_41" type="type1" route="ER4" depart="818"/>
  <vehicle id="WR4_6" type="type1" route="WR4" depart="825"/>
  <vehicle id="WR5_10" type="type1" route="WR5" depart="825"/>
  <vehicle id="WR1_74" type="type1" route="WR1" depart="828"/>
  <vehicle id="ER4_42" type="type1" route="ER4" depart="834"/>
  <vehicle id="ER6_14" type="type1" route="ER6" depart="840"/>
  <vehicle id="WR1_75" type="type1" route="WR1" depart="843"/>
  <vehicle id="ER4_43" type="type1" route="ER4" depart="850"/>
  <vehicle id="ER7_7" type="type1" route="ER7" depart="850"/>
  <vehicle id="WR1_76" type="type1" route="WR1" depart="858"/>
  <vehicle id="ER4_44" type="type1" route="ER4" depart="866"/>
  <vehicle id="ER6_15" type="type1" route="ER6" depart="870"/>
  <vehicle id="WR1_77" type="type1" route="WR1" depart="873"/>
  <vehicle id="ER4_45" type="type1" route="ER4" depart="882"/>
  <vehicle id="WR1_78" type="type1" route="WR1" depart="888"/>
  <vehicle id="ER4_46" type="type1" route="ER4" depart="898"/>
  <vehicle id="ER1_3" type="type1" route="ER1" depart="900"/>
  <vehicle id="ER2_3" type="type1" route="ER2" depart="900"/>
  <vehicle id="ER3_3" type="type1" route="ER3" depart="900"/>
  <vehicle id="ER6_16" type="type1" route="ER6" depart="900"/>
  <vehicle id="ER7_8" type="type1" route="ER7" depart="900"/>
  <vehicle id="ER8_3" type="type1" route="ER8" depart="900"/>
  <vehicle id="ER9_5" type="type1" route="ER9" depart="900"/>
  <vehicle id="ER10_5" type="type1" route="ER10" depart="900"/>
  <vehicle id="ER11_3" type="type1" route="ER11" depart="900"/>
  <vehicle id="ER12_3" type="type1" route="ER12" depart="900"/>
  <vehicle id="ER13_5" type="type1" route="ER13" depart="900"/>
  <vehicle id="ER14_5" type="type1" route="ER14" depart="900"/>
  <vehicle id="WR2_7" type="type1" route="WR2" depart="900"/>
  <vehicle id="WR3_5" type="type1" route="WR3" depart="900"/>
  <vehicle id="WR4_7" type="type1" route="WR4" depart="900"/>
  <vehicle id="WR5_11" type="type1" route="WR5" depart="900"/>
  <vehicle id="WR6_9" type="type1" route="WR6" depart="900"/>
  <vehicle id="WR7_3" type="type1" route="WR7" depart="900"/>
  <vehicle id="WR8_3" type="type1" route="WR8" depart="900"/>
  <vehicle id="WR9_3" type="type1" route="WR9" depart="900"/>
  <vehicle id="WR10_5" type="type1" route="WR10" depart="900"/>
  <vehicle id="WR11_3" type="type1" route="WR11" depart="900"/>
  <vehicle id="WR12_3" type="type1" route="WR12" depart="900"/>
  <vehicle id="WR1_79" type="type1" route="WR1" depart="903"/>
  <vehicle id="ER5_13" type="type1" route="ER5" depart="904"/>
  <vehicle id="ER4_47" type="type1" route="ER4" depart="914"/>
  <vehicle id="ER6_17" type="type1" route="ER6" depart="917"/>
  <vehicle id="WR1_80" type="type1" route="WR1" depart="918"/>
  <vehicle id="ER4_48" type="type1" route="ER4" depart="926"/>
  <vehicle id="WR1_81" type="type1" route="WR1" depart="933"/>
  <vehicle id="ER6_18" type="type1" route="ER6" depart="934"/>
  <vehicle id="ER4_49" type="type1" route="ER4" depart="938"/>
  <vehicle id="WR4_8" type="type1" route="WR4" depart="938"/>
  <vehicle id="WR1_82" type="type1" route="WR1" depart="941"/>
  <vehicle id="WR1_83" type="type1" route="WR1" depart="949"/>
  <vehicle id="ER4_50" type="type1" route="ER4" depart="950"/>
  <vehicle id="ER6_19" type="type1" route="ER6" depart="951"/>
  <vehicle id="WR1_84" type="type1" route="WR1" depart="957"/>
  <vehicle id="WR6_10" type="type1" route="WR6" depart="960"/>
  <vehicle id="ER4_51" type="type1" route="ER4" depart="962"/>
  <vehicle id="WR1_85" type="type1" route="WR1" depart="965"/>
  <vehicle id="ER6_20" type="type1" route="ER6" depart="968"/>
  <vehicle id="WR1_86" type="type1" route="WR1" depart="973"/>
  <vehicle id="ER4_52" type="type1" route="ER4" depart="974"/>
  <vehicle id="WR4_9" type="type1" route="WR4" depart="976"/>
  <vehicle id="ER5_14" type="type1" route="ER5" depart="979"/>
  <vehicle id="WR1_87" type="type1" route="WR1" depart="981"/>
  <vehicle id="ER6_21" type="type1" route="ER6" depart="985"/>
  <vehicle id="ER4_53" type="type1" route="ER4" depart="986"/>
  <vehicle id="WR1_88" type="type1" route="WR1" depart="989"/>
  <vehicle id="WR1_89" type="type1" route="WR1" depart="997"/>
  <vehicle id="ER4_54" type="type1" route="ER4" depart="998"/>
  <vehicle id="ER9_6" type="type1" route="ER9" depart="1000"/>
  <vehicle id="ER13_6" type="type1" route="ER13" depart="1000"/>
  <vehicle id="WR2_8" type="type1" route="WR2" depart="1000"/>
  <vehicle id="WR3_6" type="type1" route="WR3" depart="1000"/>
  <vehicle id="ER6_22" type="type1" route="ER6" depart="1002"/>
  <vehicle id="WR1_90" type="type1" route="WR1" depart="1005"/>
  <vehicle id="ER4_55" type="type1" route="ER4" depart="1010"/>
  <vehicle id="WR1_91" type="type1" route="WR1" depart="1013"/>
  <vehicle id="WR4_10" type="type1" route="WR4" depart="1014"/>
  <vehicle id="ER6_23" type="type1" route="ER6" depart="1019"/>
  <vehicle id="WR6_11" type="type1" route="WR6" depart="1020"/>
  <vehicle id="WR1_92" type="type1" route="WR1" depart="1021"/>
  <vehicle id="ER4_56" type="type1" route="ER4" depart="1022"/>
  <vehicle id="WR1_93" type="type1" route="WR1" depart="1029"/>
  <vehicle id="ER4_57" type="type1" route="ER4" depart="1034"/>
  <vehicle id="ER6_24" type="type1" route="ER6" depart="1036"/>
  <vehicle id="WR1_94" type="type1" route="WR1" depart="1037"/>
  <vehicle id="WR1_95" type="type1" route="WR1" depart="1045"/>
  <vehicle id="ER4_58" type="type1" route="ER4" depart="1046"/>
  <vehicle id="ER1_4" type="type1" route="ER1" depart="1050"/>
  <vehicle id="ER7_9" type="type1" route="ER7" depart="1050"/>
  <vehicle id="WR5_12" type="type1" route="WR5" depart="1050"/>
  <vehicle id="WR10_6" type="type1" route="WR10" depart="1050"/>
  <vehicle id="WR4_11" type="type1" route="WR4" depart="1052"/>
  <vehicle id="ER6_25" type="type1" route="ER6" depart="1053"/>
  <vehicle id="WR1_96" type="type1" route="WR1" depart="1053"/>
  <vehicle id="ER5_15" type="type1" route="ER5" depart="1054"/>
  <vehicle id="ER4_59" type="type1" route="ER4" depart="1058"/>
  <vehicle id="WR1_97" type="type1" route="WR1" depart="1061"/>
  <vehicle id="WR1_98" type="type1" route="WR1" depart="1069"/>
  <vehicle id="ER4_60" type="type1" route="ER4" depart="1070"/>
  <vehicle id="ER6_26" type="type1" route="ER6" depart="1070"/>
  <vehicle id="WR1_99" type="type1" route="WR1" depart="1077"/>
  <vehicle id="WR6_12" type="type1" route="WR6" depart="1080"/>
  <vehicle id="ER4_61" type="type1" route="ER4" depart="1082"/>
  <vehicle id="WR1_100" type="type1" route="WR1" depart="1085"/>
  <vehicle id="ER6_27" type="type1" route="ER6" depart="1087"/>
  <vehicle id="WR4_12" type="type1" route="WR4" depart="1090"/>
  <vehicle id="WR1_101" type="type1" route="WR1" depart="1093"/>
  <vehicle id="ER4_62" type="type1" route="ER4" depart="1094"/>
  <vehicle id="ER9_7" type="type1" route="ER9" depart="1100"/>
  <vehicle id="ER13_7" type="type1" route="ER13" depart="1100"/>
  <vehicle id="WR2_9" type="type1" route="WR2" depart="1100"/>
  <vehicle id="WR3_7" type="type1" route="WR3" depart="1100"/>
  <vehicle id="WR1_102" type="type1" route="WR1" depart="1101"/>
  <vehicle id="ER6_28" type="type1" route="ER6" depart="1104"/>
  <vehicle id="ER4_63" type="type1" route="ER4" depart="1106"/>
  <vehicle id="WR1_103" type="type1" route="WR1" depart="1109"/>
  <vehicle id="WR1_104" type="type1" route="WR1" depart="1117"/>
  <vehicle id="ER4_64" type="type1" route="ER4" depart="1118"/>
  <vehicle id="ER6_29" type="type1" route="ER6" depart="1121"/>
  <vehicle id="WR1_105" type="type1" route="WR1" depart="1125"/>
  <vehicle id="WR4_13" type="type1" route="WR4" depart="1128"/>
  <vehicle id="ER5_16" type="type1" route="ER5" depart="1129"/>
  <vehicle id="ER4_65" type="type1" route="ER4" depart="1130"/>
  <vehicle id="WR1_106" type="type1" route="WR1" depart="1133"/>
  <vehicle id="ER6_30" type="type1" route="ER6" depart="1138"/>
  <vehicle id="WR6_13" type="type1" route="WR6" depart="1140"/>
  <vehicle id="WR1_107" type="type1" route="WR1" depart="1141"/>
  <vehicle id="ER4_66" type="type1" route="ER4" depart="1142"/>
  <vehicle id="WR1_108" type="type1" route="WR1" depart="1149"/>
  <vehicle id="ER4_67" type="type1" route="ER4" depart="1154"/>
  <vehicle id="ER6_31" type="type1" route="ER6" depart="1155"/>
  <vehicle id="WR1_109" type="type1" route="WR1" depart="1157"/>
  <vehicle id="WR1_110" type="type1" route="WR1" depart="1165"/>
  <vehicle id="ER4_68" type="type1" route="ER4" depart="1166"/>
  <vehicle id="WR4_14" type="type1" route="WR4" depart="1166"/>
  <vehicle id="ER6_32" type="type1" route="ER6" depart="1172"/>
  <vehicle id="WR1_111" type="type1" route="WR1" depart="1173"/>
  <vehicle id="ER4_69" type="type1" route="ER4" depart="1178"/>
  <vehicle id="WR1_112" type="type1" route="WR1" depart="1181"/>
  <vehicle id="ER6_33" type="type1" route="ER6" depart="1189"/>
  <vehicle id="WR1_113" type="type1" route="WR1" depart="1189"/>
  <vehicle id="ER4_70" type="type1" route="ER4" depart="1190"/>
  <vehicle id="WR1_114" type="type1" route="WR1" depart="1197"/>
  <vehicle id="ER1_5" type="type1" route="ER1" depart="1200"/>
  <vehicle id="ER2_4" type="type1" route="ER2" depart="1200"/>
  <vehicle id="ER3_4" type="type1" route="ER3" depart="1200"/>
  <vehicle id="ER7_10" type="type1" route="ER7" depart="1200"/>
  <vehicle id="ER8_4" type="type1" route="ER8" depart="1200"/>
  <vehicle id="ER9_8" type="type1" route="ER9" depart="1200"/>
  <vehicle id="ER10_6" type="type1" route="ER10" depart="1200"/>
  <vehicle id="ER11_4" type="type1" route="ER11" depart="1200"/>
  <vehicle id="ER12_4" type="type1" route="ER12" depart="1200"/>
  <vehicle id="ER13_8" type="type1" route="ER13" depart="1200"/>
  <vehicle id="ER14_6" type="type1" route="ER14" depart="1200"/>
  <vehicle id="WR2_10" type="type1" route="WR2" depart="1200"/>
  <vehicle id="WR3_8" type="type1" route="WR3" depart="1200"/>
  <vehicle id="WR5_13" type="type1" route="WR5" depart="1200"/>
  <vehicle id="WR6_14" type="type1" route="WR6" depart="1200"/>
  <vehicle id="WR7_4" type="type1" route="WR7" depart="1200"/>
  <vehicle id="WR8_4" type="type1" route="WR8" depart="1200"/>
  <vehicle id="WR9_4" type="type1" route="WR9" depart="1200"/>
  <vehicle id="WR10_7" type="type1" route="WR10" depart="1200"/>
  <vehicle id="WR11_4" type="type1" route="WR11" depart="1200"/>
  <vehicle id="WR12_4" type="type1" route="WR12" depart="1200"/>
  <vehicle id="ER4_71" type="type1" route="ER4" depart="1202"/>
  <vehicle id="ER5_17" type="type1" route="ER5" depart="1204"/>
  <vehicle id="WR4_15" type="type1" route="WR4" depart="1204"/>
  <vehicle id="WR1_115" type="type1" route="WR1" depart="1205"/>
  <vehicle id="ER6_34" type="type1" route="ER6" depart="1206"/>
  <vehicle id="WR1_116" type="type1" route="WR1" depart="1213"/>
  <vehicle id="ER4_72" type="type1" route="ER4" depart="1214"/>
  <vehicle id="WR1_117" type="type1" route="WR1" depart="1221"/>
  <vehicle id="ER4_73" type="type1" route="ER4" depart="1229"/>
  <vehicle id="WR1_118" type="type1" route="WR1" depart="1229"/>
  <vehicle id="WR1_119" type="type1" route="WR1" depart="1237"/>
  <vehicle id="ER4_74" type="type1" route="ER4" depart="1244"/>
  <vehicle id="WR1_120" type="type1" route="WR1" depart="1245"/>
  <vehicle id="WR1_121" type="type1" route="WR1" depart="1253"/>
  <vehicle id="ER4_75" type="type1" route="ER4" depart="1259"/>
  <vehicle id="WR1_122" type="type1" route="WR1" depart="1262"/>
  <vehicle id="ER5_18" type="type1" route="ER5" depart="1264"/>
  <vehicle id="WR1_123" type="type1" route="WR1" depart="1271"/>
  <vehicle id="ER4_76" type="type1" route="ER4" depart="1274"/>
  <vehicle id="ER7_11" type="type1" route="ER7" depart="1275"/>
  <vehicle id="WR5_14" type="type1" route="WR5" depart="1275"/>
  <vehicle id="WR6_15" type="type1" route="WR6" depart="1275"/>
  <vehicle id="WR1_124" type="type1" route="WR1" depart="1280"/>
  <vehicle id="ER6_35" type="type1" route="ER6" depart="1281"/>
  <vehicle id="ER4_77" type="type1" route="ER4" depart="1289"/>
  <vehicle id="WR1_125" type="type1" route="WR1" depart="1289"/>
  <vehicle id="WR1_126" type="type1" route="WR1" depart="1298"/>
  <vehicle id="ER4_78" type="type1" route="ER4" depart="1304"/>
  <vehicle id="WR1_127" type="type1" route="WR1" depart="1307"/>
  <vehicle id="WR1_128" type="type1" route="WR1" depart="1316"/>
  <vehicle id="ER4_79" type="type1" route="ER4" depart="1319"/>
  <vehicle id="ER5_19" type="type1" route="ER5" depart="1324"/>
  <vehicle id="WR1_129" type="type1" route="WR1" depart="1325"/>
  <vehicle id="ER4_80" type="type1" route="ER4" depart="1334"/>
  <vehicle id="WR1_130" type="type1" route="WR1" depart="1334"/>
  <vehicle id="WR1_131" type="type1" route="WR1" depart="1343"/>
  <vehicle id="ER4_81" type="type1" route="ER4" depart="1349"/>
  <vehicle id="ER1_6" type="type1" route="ER1" depart="1350"/>
  <vehicle id="ER7_12" type="type1" route="ER7" depart="1350"/>