<?xml version="1.0" encoding="UTF-8"?>

<!-- generated on 2024-02-23 11:32:31 by Eclipse SUMO netedit Version 1.19.0
<configuration xmlns:xsi="http://www.w3.org/2001/XMLSchema-instance" xsi:noNamespaceSchemaLocation="http://sumo.dlr.de/xsd/neteditConfiguration.xsd">

    <input>
        <sumo-net-file value="C:\Users\mehdi\OneDrive - University of Tennessee\Documents\CUIP Projects\Fraizer street\Final\Scenario1_current\frizer_Av_current.net.xml"/>
    </input>

    <output>
        <output-file value="C:\Users\mehdi\OneDrive - University of Tennessee\Documents\CUIP Projects\Fraizer street\Final\Scenario1_current\frizer_Av_current.net.xml"/>
    </output>

    <processing>
        <geometry.min-radius.fix.railways value="false"/>
        <geometry.max-grade.fix value="false"/>
        <offset.disable-normalization value="true"/>
        <lefthand value="0"/>
    </processing>

    <junctions>
        <no-turnarounds value="true"/>
        <junctions.corner-detail value="5"/>
        <junctions.limit-turn-speed value="5.50"/>
        <rectangular-lane-cut value="0"/>
    </junctions>

    <pedestrian>
        <walkingareas value="0"/>
    </pedestrian>

</configuration>
-->

<net version="1.16" junctionCornerDetail="5" limitTurnSpeed="5.50" xmlns:xsi="http://www.w3.org/2001/XMLSchema-instance" xsi:noNamespaceSchemaLocation="http://sumo.dlr.de/xsd/net_file.xsd">

    <location netOffset="-639371.48,-3848823.33" convBoundary="14784.40,32106.57,15541.36,32689.34" origBoundary="-85.473756,34.767743,-84.942016,35.445713" projParameter="+proj=utm +zone=16 +ellps=WGS84 +datum=WGS84 +units=m +no_defs"/>

    <edge id=":10235_0" function="internal">
        <lane id=":10235_0_0" index="0" speed="3.65" length="4.67" shape="14830.62,32689.68,202.00 14829.59,32690.68,202.00 14828.72,32690.90,202.00 14828.03,32690.35,202.00 14827.50,32689.00,202.00"/>
    </edge>
    <edge id=":10267_0" function="internal">
        <lane id=":10267_0_0" index="0" speed="6.62" length="6.90" shape="15117.30,32508.12,214.00 15117.86,32509.85,214.00 15118.81,32511.17,214.00 15120.16,32512.09,214.00 15121.90,32512.61,214.00"/>
    </edge>
    <edge id=":10276_0" function="internal">
        <lane id=":10276_0_0" index="0" speed="7.00" length="4.73" shape="15254.75,32464.70,209.00 15255.72,32465.42,209.00 15256.78,32465.89,209.00 15257.91,32466.12,209.00 15259.12,32466.10,209.00"/>
    </edge>
    <edge id=":10278_0" function="internal">
        <lane id=":10278_0_0" index="0" disallow="pedestrian" speed="9.38" length="17.38" shape="14953.59,32468.91,203.00 14949.35,32470.16,202.96 14946.27,32472.61,202.92 14944.35,32476.25,202.88 14943.59,32481.10,202.83"/>
    </edge>
    <edge id=":10278_1" function="internal">
        <lane id=":10278_1_0" index="0" speed="14.00" length="19.79" shape="14953.59,32468.91,203.00 14947.84,32470.20,203.00 14944.08,32471.83,203.00 14940.32,32473.50,203.00 14934.59,32474.86,203.00"/>
        <lane id=":10278_1_1" index="1" speed="14.00" length="19.79" shape="14953.59,32468.91,203.00 14934.11,32471.67,203.00"/>
        <lane id=":10278_1_2" index="2" speed="14.00" length="19.79" shape="14953.16,32465.74,203.00 14933.64,32468.51,203.00"/>
    </edge>
    <edge id=":10278_4" function="internal">
        <lane id=":10278_4_0" index="0" speed="14.00" length="19.78" shape="14932.70,32462.18,203.00 14952.31,32459.40,203.00"/>
        <lane id=":10278_4_1" index="1" speed="14.00" length="19.78" shape="14933.17,32465.34,203.00 14952.73,32462.57,203.00"/>
    </edge>
    <edge id=":10278_6" function="internal">
        <lane id=":10278_6_0" index="0" disallow="pedestrian" speed="9.27" length="3.35" shape="14933.17,32465.34,203.00 14936.51,32465.60,202.97"/>
    </edge>
    <edge id=":10278_9" function="internal">
        <lane id=":10278_9_0" index="0" disallow="pedestrian" speed="9.27" length="18.75" shape="14936.51,32465.60,202.97 14937.94,32465.71,202.96 14941.27,32468.45,202.93 14943.16,32473.59,202.89 14943.59,32481.10,202.83"/>
    </edge>
    <edge id=":10278_7" function="internal">
        <lane id=":10278_7_0" index="0" speed="6.24" length="9.33" shape="14940.25,32480.25,202.92 14939.97,32477.57,202.94 14938.93,32475.77,202.96 14937.14,32474.87,202.98 14934.59,32474.86,203.00"/>
    </edge>
    <edge id=":10278_8" function="internal">
        <lane id=":10278_8_0" index="0" speed="10.89" length="23.80" shape="14940.25,32480.25,202.92 14941.21,32473.12,202.95 14943.61,32467.80,202.96 14947.45,32464.28,202.98 14952.73,32462.57,203.00"/>
    </edge>
    <edge id=":10281_0" function="internal">
        <lane id=":10281_0_0" index="0" speed="6.52" length="8.68" shape="15042.28,32462.34,205.13 15041.52,32460.11,205.06 15040.23,32458.61,205.00 15038.40,32457.86,204.94 15036.04,32457.84,204.87"/>
    </edge>
    <edge id=":10281_1" function="internal">
        <lane id=":10281_1_0" index="0" speed="8.73" length="16.15" shape="15042.28,32462.34,205.13 15041.83,32457.27,205.09 15042.61,32453.35,205.06 15044.62,32450.58,205.03 15047.88,32448.97,205.00"/>
    </edge>
    <edge id=":10281_2" function="internal">
        <lane id=":10281_2_0" index="0" speed="6.57" length="8.71" shape="15049.53,32455.16,205.00 15047.36,32456.08,205.03 15045.95,32457.48,205.06 15045.31,32459.37,205.09 15045.43,32461.74,205.13"/>
    </edge>
    <edge id=":10281_3" function="internal">
        <lane id=":10281_3_0" index="0" speed="14.00" length="13.57" shape="15049.53,32455.16,205.00 15045.58,32456.19,204.96 15042.85,32456.82,204.93 15040.09,32457.28,204.91 15036.04,32457.84,204.87"/>
        <lane id=":10281_3_1" index="1" speed="14.00" length="13.57" shape="15048.71,32452.06,205.00 15044.87,32453.07,204.96 15042.22,32453.68,204.93 15039.54,32454.13,204.91 15035.61,32454.67,204.87"/>
    </edge>
    <edge id=":10281_5" function="internal">
        <lane id=":10281_5_0" index="0" speed="14.00" length="12.76" shape="15034.76,32448.33,204.85 15038.45,32447.82,204.90 15040.97,32447.40,204.93 15043.45,32446.83,204.96 15047.06,32445.88,205.00"/>
        <lane id=":10281_5_1" index="1" speed="14.00" length="12.76" shape="15035.19,32451.50,204.85 15039.00,32450.97,204.90 15041.59,32450.54,204.93 15044.16,32449.95,204.96 15047.88,32448.97,205.00"/>
    </edge>
    <edge id=":10281_7" function="internal">
        <lane id=":10281_7_0" index="0" speed="8.69" length="3.51" shape="15035.19,32451.50,204.85 15038.68,32451.72,204.91"/>
    </edge>
    <edge id=":10281_8" function="internal">
        <lane id=":10281_8_0" index="0" speed="8.69" length="12.70" shape="15038.68,32451.72,204.91 15038.86,32451.73,204.91 15041.79,32453.52,204.97 15043.98,32456.85,205.04 15045.43,32461.74,205.13"/>
    </edge>
    <edge id=":10286_0" function="internal">
        <lane id=":10286_0_0" index="0" speed="7.16" length="9.48" shape="15088.21,32450.81,210.00 15086.76,32448.59,210.00 15084.99,32447.20,210.00 15082.90,32446.64,210.00 15080.49,32446.91,210.00"/>
    </edge>
    <edge id=":10286_1" function="internal">
        <lane id=":10286_1_0" index="0" speed="9.33" length="19.66" shape="15088.21,32450.81,210.00 15085.77,32444.58,209.93 15085.15,32439.58,209.88 15086.36,32435.80,209.84 15089.40,32433.25,209.80"/>
        <lane id=":10286_1_1" index="1" speed="8.80" length="17.43" shape="15088.21,32450.81,210.00 15086.26,32445.57,210.00 15085.99,32441.29,210.00 15087.42,32437.95,210.00 15090.53,32435.56,210.00"/>
    </edge>
    <edge id=":10286_3" function="internal">
        <lane id=":10286_3_0" index="0" speed="6.48" length="9.02" shape="15093.67,32441.95,210.00 15091.61,32443.31,210.00 15090.49,32445.01,210.00 15090.32,32447.04,210.00 15091.09,32449.40,210.00"/>
    </edge>
    <edge id=":10286_4" function="internal">
        <lane id=":10286_4_0" index="0" speed="14.00" length="13.80" shape="15093.67,32441.95,210.00 15089.88,32443.74,210.00 15087.25,32444.88,210.00 15084.53,32445.80,210.00 15080.49,32446.91,210.00"/>
        <lane id=":10286_4_1" index="1" speed="14.00" length="13.80" shape="15092.26,32439.07,210.00 15088.64,32440.79,210.00 15086.12,32441.88,210.00 15083.53,32442.75,210.00 15079.67,32443.82,210.00"/>
    </edge>
    <edge id=":10286_6" function="internal">
        <lane id=":10286_6_0" index="0" speed="14.00" length="12.81" shape="15078.02,32437.63,210.00 15081.32,32436.21,209.94 15083.17,32434.43,209.90 15084.93,32432.43,209.86 15087.99,32430.38,209.80"/>
        <lane id=":10286_6_1" index="1" speed="14.00" length="12.81" shape="15078.85,32440.73,210.00 15082.32,32439.26,209.94 15084.29,32437.43,209.90 15086.18,32435.38,209.86 15089.40,32433.25,209.80"/>
    </edge>
    <edge id=":10286_8" function="internal">
        <lane id=":10286_8_0" index="0" speed="9.22" length="3.23" shape="15078.85,32440.73,210.00 15082.08,32440.57,210.00"/>
    </edge>
    <edge id=":10286_9" function="internal">
        <lane id=":10286_9_0" index="0" speed="9.22" length="13.06" shape="15082.08,32440.57,210.00 15082.26,32440.56,210.00 15085.44,32441.95,210.00 15088.38,32444.90,210.00 15091.09,32449.40,210.00"/>
    </edge>
    <edge id=":10301_0" function="internal">
        <lane id=":10301_0_0" index="0" speed="7.43" length="12.11" shape="15209.59,32395.27,206.22 15207.49,32391.79,206.22 15205.27,32389.67,206.22 15202.94,32388.89,206.22 15200.48,32389.45,206.22"/>
    </edge>
    <edge id=":10301_1" function="internal">
        <lane id=":10301_1_0" index="0" speed="15.81" length="27.82" shape="15209.59,32395.27,206.22 15199.33,32369.41,206.22"/>
    </edge>
    <edge id=":10301_2" function="internal">
        <lane id=":10301_2_0" index="0" speed="9.80" length="5.11" shape="15212.46,32393.85,206.22 15210.69,32389.06,206.22"/>
    </edge>
    <edge id=":10301_14" function="internal">
        <lane id=":10301_14_0" index="0" speed="9.80" length="16.77" shape="15210.69,32389.06,206.22 15210.07,32387.40,206.22 15209.83,32382.07,206.22 15211.72,32377.88,206.22 15215.75,32374.82,206.22"/>
    </edge>
    <edge id=":10301_3" function="internal">
        <lane id=":10301_3_0" index="0" speed="7.23" length="11.19" shape="15220.08,32383.68,206.12 15217.08,32385.64,206.15 15215.29,32387.76,206.18 15214.71,32390.02,206.20 15215.33,32392.44,206.22"/>
    </edge>
    <edge id=":10301_4" function="internal">
        <lane id=":10301_4_0" index="0" speed="14.00" length="20.51" shape="15220.08,32383.68,206.12 15214.46,32385.96,206.15 15210.25,32386.68,206.17 15206.06,32387.35,206.19 15200.48,32389.45,206.22"/>
        <lane id=":10301_4_1" index="1" speed="14.00" length="20.51" shape="15218.56,32380.57,206.22 15212.91,32382.78,206.22 15208.74,32383.60,206.22 15204.61,32384.41,206.22 15199.07,32386.58,206.22"/>
    </edge>
    <edge id=":10301_6" function="internal">
        <lane id=":10301_6_0" index="0" speed="10.04" length="5.36" shape="15217.16,32377.69,206.22 15212.14,32379.09,206.22 15211.99,32379.06,206.22"/>
    </edge>
    <edge id=":10301_15" function="internal">
        <lane id=":10301_15_0" index="0" speed="10.04" length="16.70" shape="15211.99,32379.06,206.22 15207.49,32378.17,206.22 15203.22,32374.94,206.22 15199.33,32369.41,206.22"/>
    </edge>
    <edge id=":10301_7" function="internal">
        <lane id=":10301_7_0" index="0" speed="7.59" length="12.18" shape="15204.93,32366.31,206.22 15207.19,32369.68,206.22 15209.51,32371.75,206.22 15211.90,32372.50,206.22 15214.35,32371.94,206.22"/>
    </edge>
    <edge id=":10301_8" function="internal">
        <lane id=":10301_8_0" index="0" speed="15.81" length="27.90" shape="15202.13,32367.86,206.22 15215.33,32392.44,206.22"/>
    </edge>
    <edge id=":10301_9" function="internal">
        <lane id=":10301_9_0" index="0" speed="9.62" length="9.26" shape="15202.13,32367.86,206.22 15204.74,32374.10,206.22 15204.92,32376.58,206.22"/>
    </edge>
    <edge id=":10301_16" function="internal">
        <lane id=":10301_16_0" index="0" speed="9.62" length="12.49" shape="15204.92,32376.58,206.22 15205.11,32379.30,206.22 15203.21,32383.46,206.22 15199.07,32386.58,206.22"/>
    </edge>
    <edge id=":10301_10" function="internal">
        <lane id=":10301_10_0" index="0" speed="7.01" length="11.04" shape="15194.80,32377.95,206.22 15197.82,32376.08,206.22 15199.57,32374.03,206.22 15200.08,32371.81,206.22 15199.33,32369.41,206.22"/>
    </edge>
    <edge id=":10301_11" function="internal">
        <lane id=":10301_11_0" index="0" speed="14.00" length="20.52" shape="15194.80,32377.95,206.22 15200.47,32375.73,206.22 15204.65,32374.90,206.22 15208.80,32374.10,206.22 15214.35,32371.94,206.22"/>
        <lane id=":10301_11_1" index="1" speed="14.00" length="20.52" shape="15196.22,32380.82,206.22 15201.88,32378.60,206.22 15206.06,32377.78,206.22 15210.20,32376.98,206.22 15215.75,32374.82,206.22"/>
    </edge>
    <edge id=":10301_13" function="internal">
        <lane id=":10301_13_0" index="0" speed="9.94" length="5.35" shape="15197.64,32383.69,206.22 15202.80,32382.27,206.22"/>
    </edge>
    <edge id=":10301_17" function="internal">
        <lane id=":10301_17_0" index="0" speed="9.94" length="17.01" shape="15202.80,32382.27,206.22 15207.47,32383.26,206.22 15211.64,32386.65,206.22 15215.33,32392.44,206.22"/>
    </edge>
    <edge id=":10346_0" function="internal">
        <lane id=":10346_0_0" index="0" speed="6.25" length="5.35" shape="15296.83,32254.64,201.06 15296.76,32253.25,201.04 15297.05,32252.00,201.03 15297.71,32250.90,201.02 15298.72,32249.95,201.00"/>
    </edge>
    <edge id=":10346_1" function="internal">
        <lane id=":10346_1_0" index="0" speed="3.65" length="4.67" shape="15296.83,32254.64,201.06 15297.42,32253.32,201.06 15298.14,32252.79,201.05 15298.99,32253.05,201.05 15299.99,32254.09,201.05"/>
    </edge>
    <edge id=":10346_2" function="internal">
        <lane id=":10346_2_0" index="0" speed="4.00" length="1.78" shape="15300.62,32252.53,201.00 15300.28,32252.84,201.01 15300.06,32253.21,201.03 15299.96,32253.63,201.04 15299.99,32254.09,201.05"/>
    </edge>
    <edge id=":10346_3" function="internal">
        <lane id=":10346_3_0" index="0" speed="3.65" length="4.67" shape="15300.62,32252.53,201.00 15299.18,32252.59,201.00 15298.38,32252.18,201.00 15298.23,32251.30,201.00 15298.72,32249.95,201.00"/>
    </edge>
    <edge id=":10350_0" function="internal">
        <lane id=":10350_0_0" index="0" speed="3.91" length="2.50" shape="15378.96,32243.66,202.00 15378.83,32242.99,201.99 15378.51,32242.52,201.97 15378.01,32242.24,201.96 15377.34,32242.16,201.95"/>
    </edge>
    <edge id=":10350_1" function="internal">
        <lane id=":10350_1_0" index="0" speed="3.65" length="4.67" shape="15378.96,32243.66,202.00 15379.69,32242.41,202.00 15380.46,32241.96,202.00 15381.28,32242.31,202.00 15382.16,32243.46,202.00"/>
    </edge>
    <edge id=":10350_2" function="internal">
        <lane id=":10350_2_0" index="0" speed="6.08" length="7.51" shape="15377.27,32238.96,201.95 15379.30,32239.21,201.96 15380.79,32240.04,201.97 15381.75,32241.46,201.99 15382.16,32243.46,202.00"/>
    </edge>
    <edge id=":10350_3" function="internal">
        <lane id=":10350_3_0" index="0" speed="3.65" length="4.67" shape="15377.27,32238.96,201.95 15378.49,32239.74,201.95 15378.90,32240.53,201.95 15378.52,32241.34,201.95 15377.34,32242.16,201.95"/>
    </edge>
    <edge id=":3705_0" function="internal">
        <lane id=":3705_0_0" index="0" speed="10.14" length="18.89" shape="14883.36,32483.52,203.00 14876.96,32485.47,203.00 14872.38,32487.79,203.00 14869.61,32490.48,203.00 14868.65,32493.53,203.00"/>
    </edge>
    <edge id=":3705_1" function="internal">
        <lane id=":3705_1_0" index="0" speed="16.07" length="28.08" shape="14883.36,32483.52,203.00 14874.75,32485.25,203.00 14868.24,32486.20,203.00 14862.55,32487.35,203.00 14856.42,32489.67,203.00"/>
        <lane id=":3705_1_1" index="1" speed="16.07" length="28.08" shape="14882.67,32480.40,203.00 14873.81,32482.20,203.00 14867.08,32483.23,203.00 14861.23,32484.44,203.00 14855.04,32486.78,203.00"/>
    </edge>
    <edge id=":3705_3" function="internal">
        <lane id=":3705_3_0" index="0" speed="9.64" length="7.86" shape="14881.92,32477.29,203.00 14874.82,32478.14,203.00 14874.13,32477.96,203.00"/>
    </edge>
    <edge id=":3705_14" function="internal">
        <lane id=":3705_14_0" index="0" speed="9.64" length="15.58" shape="14874.13,32477.96,203.00 14869.57,32476.78,203.00 14866.17,32473.23,203.00 14864.63,32467.47,203.00"/>
    </edge>
    <edge id=":3705_4" function="internal">
        <lane id=":3705_4_0" index="0" speed="6.21" length="9.05" shape="14874.20,32466.62,203.00 14874.78,32469.08,203.00 14876.01,32470.65,203.00 14877.89,32471.31,203.00 14880.41,32471.07,203.00"/>
    </edge>
    <edge id=":3705_5" function="internal">
        <lane id=":3705_5_0" index="0" speed="18.77" length="26.82" shape="14871.01,32466.90,203.00 14871.17,32475.27,203.00 14870.34,32481.46,203.00 14869.26,32487.02,203.00 14868.65,32493.53,203.00"/>
    </edge>
    <edge id=":3705_6" function="internal">
        <lane id=":3705_6_0" index="0" speed="12.19" length="25.04" shape="14867.82,32467.19,203.00 14867.46,32473.28,203.00 14865.21,32478.57,203.00 14861.07,32483.07,203.00 14855.04,32486.78,203.00"/>
    </edge>
    <edge id=":3705_7" function="internal">
        <lane id=":3705_7_0" index="0" speed="9.68" length="15.49" shape="14850.93,32478.10,203.00 14855.70,32475.50,203.00 14859.05,32472.91,203.00 14860.96,32470.33,203.00 14861.45,32467.76,203.00"/>
    </edge>
    <edge id=":3705_8" function="internal">
        <lane id=":3705_8_0" index="0" speed="16.07" length="30.13" shape="14850.93,32478.10,203.00 14859.89,32474.62,203.00 14867.11,32473.05,203.00 14873.61,32472.26,203.00 14880.41,32471.07,203.00"/>
        <lane id=":3705_8_1" index="1" speed="16.07" length="30.13" shape="14852.30,32480.99,203.00 14861.09,32477.58,203.00 14868.11,32476.09,203.00 14874.44,32475.34,203.00 14881.16,32474.18,203.00"/>
    </edge>
    <edge id=":3705_10" function="internal">
        <lane id=":3705_10_0" index="0" speed="8.81" length="7.48" shape="14853.67,32483.89,203.00 14860.33,32481.77,203.00 14860.82,32481.86,203.00"/>
    </edge>
    <edge id=":3705_15" function="internal">
        <lane id=":3705_15_0" index="0" speed="8.81" length="16.09" shape="14860.82,32481.86,203.00 14865.05,32482.67,203.00 14867.82,32486.59,203.00 14868.65,32493.53,203.00"/>
    </edge>
    <edge id=":3705_11" function="internal">
        <lane id=":3705_11_0" index="0" speed="5.74" length="9.18" shape="14862.25,32493.42,203.00 14861.93,32490.72,203.00 14860.85,32489.19,203.00 14859.01,32488.84,203.00 14856.42,32489.67,203.00"/>
    </edge>
    <edge id=":3705_12" function="internal">
        <lane id=":3705_12_0" index="0" speed="18.77" length="25.86" shape="14862.25,32493.42,203.00 14862.32,32486.60,203.00 14862.25,32480.58,203.00 14861.97,32474.56,203.00 14861.45,32467.76,203.00"/>
        <lane id=":3705_12_1" index="1" speed="18.77" length="25.86" shape="14865.45,32493.48,203.00 14865.52,32486.60,203.00 14865.44,32480.46,203.00 14865.16,32474.33,203.00 14864.63,32467.47,203.00"/>
    </edge>
    <edge id=":3739_0" function="internal">
        <lane id=":3739_0_0" index="0" speed="17.21" length="1.19" shape="15497.82,32277.60,209.00 15497.69,32277.25,208.85 15497.68,32276.99,208.75 15497.67,32276.72,208.65 15497.58,32276.35,208.50"/>
        <lane id=":3739_0_1" index="1" speed="17.21" length="1.19" shape="15500.67,32276.14,209.00 15500.60,32275.90,208.86 15500.62,32275.72,208.75 15500.65,32275.53,208.65 15500.60,32275.28,208.50"/>
    </edge>
    <edge id=":3739_2" function="internal">
        <lane id=":3739_2_0" index="0" speed="3.65" length="0.48" shape="15500.67,32276.14,209.00 15500.73,32275.66,209.00"/>
    </edge>
    <edge id=":3739_8" function="internal">
        <lane id=":3739_8_0" index="0" speed="3.65" length="4.19" shape="15500.73,32275.66,209.00 15500.84,32274.71,209.00 15501.37,32273.99,209.00 15502.26,32273.98,209.00 15503.52,32274.68,209.00"/>
    </edge>
    <edge id=":3739_3" function="internal">
        <lane id=":3739_3_0" index="0" speed="17.21" length="0.63" shape="15506.63,32273.15,208.50 15506.37,32273.22,209.00"/>
        <lane id=":3739_3_1" index="1" speed="17.21" length="0.63" shape="15503.62,32274.21,208.50 15503.52,32274.68,209.00"/>
    </edge>
    <edge id=":3739_5" function="internal">
        <lane id=":3739_5_0" index="0" speed="3.65" length="4.67" shape="15503.62,32274.21,208.50 15503.26,32275.61,208.50 15502.64,32276.26,208.50 15501.76,32276.15,208.50 15500.60,32275.28,208.50"/>
    </edge>
    <edge id=":3739_6" function="internal">
        <lane id=":3739_6_0" index="0" speed="5.71" length="9.18" shape="15489.30,32272.43,209.00 15497.58,32276.35,208.50"/>
    </edge>
    <edge id=":3739_7" function="internal">
        <lane id=":3739_7_0" index="0" speed="10.87" length="14.43" shape="15489.30,32272.43,209.00 15491.87,32272.71,209.00 15496.61,32273.27,209.00 15501.24,32273.97,209.00 15503.52,32274.68,209.00"/>
    </edge>
    <edge id=":3740_0" function="internal">
        <lane id=":3740_0_0" index="0" speed="6.79" length="8.35" shape="15513.51,32306.36,213.00 15512.04,32304.89,213.00 15510.31,32304.14,213.00 15508.31,32304.11,213.00 15506.03,32304.81,213.00"/>
    </edge>
    <edge id=":3740_1" function="internal">
        <lane id=":3740_1_0" index="0" speed="17.21" length="12.45" shape="15513.51,32306.36,213.00 15511.33,32303.29,213.00 15509.95,32301.12,213.00 15508.71,32298.85,213.00 15507.00,32295.50,213.00"/>
        <lane id=":3740_1_1" index="1" speed="17.21" length="12.45" shape="15516.10,32304.49,213.00 15514.01,32301.54,213.00 15512.68,32299.44,213.00 15511.50,32297.26,213.00 15509.85,32294.04,213.00"/>
    </edge>
    <edge id=":3740_3" function="internal">
        <lane id=":3740_3_0" index="0" speed="3.65" length="1.44" shape="15516.10,32304.49,213.00 15516.05,32303.05,213.00"/>
    </edge>
    <edge id=":3740_8" function="internal">
        <lane id=":3740_8_0" index="0" speed="3.65" length="3.23" shape="15516.05,32303.05,213.00 15516.46,32302.26,213.00 15517.35,32302.12,213.00 15518.70,32302.62,213.00"/>
    </edge>
    <edge id=":3740_4" function="internal">
        <lane id=":3740_4_0" index="0" speed="17.21" length="11.48" shape="15515.54,32291.12,213.00 15517.06,32294.09,213.00 15518.15,32296.10,213.00 15519.37,32298.03,213.00 15521.29,32300.75,213.00"/>
        <lane id=":3740_4_1" index="1" speed="17.21" length="11.48" shape="15512.69,32292.58,213.00 15514.28,32295.67,213.00 15515.41,32297.77,213.00 15516.69,32299.78,213.00 15518.70,32302.62,213.00"/>
    </edge>
    <edge id=":3740_6" function="internal">
        <lane id=":3740_6_0" index="0" speed="7.69" length="2.24" shape="15512.69,32292.58,213.00 15513.08,32294.78,213.00"/>
    </edge>
    <edge id=":3740_7" function="internal">
        <lane id=":3740_7_0" index="0" speed="3.65" length="1.44" shape="15512.69,32292.58,213.00 15512.53,32294.01,213.00"/>
    </edge>
    <edge id=":3740_9" function="internal">
        <lane id=":3740_9_0" index="0" speed="7.69" length="11.35" shape="15513.08,32294.78,213.00 15513.10,32294.93,213.00 15511.92,32297.26,213.00 15509.13,32299.58,213.00 15504.74,32301.89,213.00"/>
    </edge>
    <edge id=":3740_10" function="internal">
        <lane id=":3740_10_0" index="0" speed="3.65" length="3.23" shape="15512.53,32294.01,213.00 15512.00,32294.73,213.00 15511.11,32294.74,213.00 15509.85,32294.04,213.00"/>
    </edge>
    <edge id=":4137_0" function="internal">
        <lane id=":4137_0_0" index="0" speed="6.82" length="18.17" shape="15526.56,32308.05,216.21 15527.74,32312.38,216.21 15525.59,32315.78,216.21 15521.36,32317.47,216.21 15516.32,32316.63,216.21"/>
    </edge>
    <edge id=":4137_1" function="internal">
        <lane id=":4137_1_0" index="0" speed="3.65" length="4.67" shape="15523.96,32309.92,216.21 15524.02,32311.37,216.21 15523.60,32312.16,216.21 15522.72,32312.30,216.21 15521.37,32311.80,216.21"/>
    </edge>
    <edge id=":4138_0" function="internal">
        <lane id=":4138_0_0" index="0" speed="19.67" length="4.63" shape="15497.52,32276.16,208.50 15495.82,32271.84,208.00"/>
        <lane id=":4138_0_1" index="1" speed="19.67" length="4.63" shape="15500.53,32275.09,208.50 15498.86,32270.86,208.00"/>
    </edge>
    <edge id=":4138_2" function="internal">
        <lane id=":4138_2_0" index="0" speed="3.65" length="1.44" shape="15500.53,32275.09,208.50 15500.89,32273.70,208.50"/>
    </edge>
    <edge id=":4138_8" function="internal">
        <lane id=":4138_8_0" index="0" speed="3.65" length="3.23" shape="15500.89,32273.70,208.50 15501.51,32273.05,208.50 15502.40,32273.16,208.50 15503.55,32274.03,208.50"/>
    </edge>
    <edge id=":4138_3" function="internal">
        <lane id=":4138_3_0" index="0" speed="19.67" length="4.45" shape="15504.95,32268.89,208.00 15506.57,32272.96,208.50"/>
        <lane id=":4138_3_1" index="1" speed="19.67" length="4.45" shape="15501.91,32269.87,208.00 15503.55,32274.03,208.50"/>
    </edge>
    <edge id=":4138_5" function="internal">
        <lane id=":4138_5_0" index="0" speed="3.65" length="1.44" shape="15501.91,32269.87,208.00 15501.51,32271.26,208.00"/>
    </edge>
    <edge id=":4138_9" function="internal">
        <lane id=":4138_9_0" index="0" speed="3.65" length="3.23" shape="15501.51,32271.26,208.00 15500.88,32271.89,208.00 15499.99,32271.75,208.00 15498.86,32270.86,208.00"/>
    </edge>
    <edge id=":4138_6" function="internal">
        <lane id=":4138_6_0" index="0" speed="19.49" length="15.76" shape="15495.62,32285.84,208.00 15496.83,32282.45,208.00 15498.46,32279.24,208.00 15499.48,32275.58,208.00 15498.86,32270.86,208.00"/>
    </edge>
    <edge id=":4138_7" function="internal">
        <lane id=":4138_7_0" index="0" speed="6.95" length="18.83" shape="15495.62,32285.84,208.00 15497.08,32279.67,208.17 15499.12,32274.22,208.32 15501.40,32271.63,208.41 15503.55,32274.03,208.50"/>
    </edge>
    <edge id=":4142_0" function="internal">
        <lane id=":4142_0_0" index="0" speed="3.65" length="4.67" shape="14785.28,32526.83,204.00 14783.83,32526.82,204.00 14783.06,32526.37,204.00 14782.96,32525.48,204.00 14783.52,32524.15,204.00"/>
    </edge>
    <edge id=":4416_0" function="internal">
        <lane id=":4416_0_0" index="0" speed="16.30" length="15.62" shape="15501.09,32312.31,211.00 15497.66,32312.18,211.00 15494.39,32312.59,211.00 15490.61,32313.34,211.00 15485.65,32314.24,211.00"/>
    </edge>
    <edge id=":4416_1" function="internal">
        <lane id=":4416_1_0" index="0" speed="7.69" length="19.35" shape="15501.09,32312.31,211.00 15493.24,32310.86,211.00 15488.51,32308.91,211.00 15486.90,32306.46,211.00 15488.40,32303.51,211.00"/>
    </edge>
    <edge id=":4416_2" function="internal">
        <lane id=":4416_2_0" index="0" speed="16.47" length="14.66" shape="15498.78,32308.02,211.00 15494.93,32310.08,211.00 15492.41,32311.81,211.00 15489.80,32313.21,211.00 15485.65,32314.24,211.00"/>
        <lane id=":4416_2_1" index="1" speed="16.47" length="14.66" shape="15498.25,32304.76,211.00 15494.41,32306.83,211.00 15491.91,32308.60,211.00 15489.30,32310.03,211.00 15485.16,32311.08,211.00"/>
    </edge>
    <edge id=":4416_4" function="internal">
        <lane id=":4416_4_0" index="0" speed="5.81" length="9.30" shape="15498.25,32304.76,211.00 15494.05,32306.06,211.00 15490.01,32306.46,211.00 15489.21,32306.21,211.00"/>
    </edge>
    <edge id=":4416_7" function="internal">
        <lane id=":4416_7_0" index="0" speed="5.81" length="3.99" shape="15489.21,32306.21,211.00 15487.62,32305.70,211.00 15488.40,32303.51,211.00"/>
    </edge>
    <edge id=":4416_5" function="internal">
        <lane id=":4416_5_0" index="0" allow="pedestrian" speed="8.29" length="4.68" shape="15484.26,32305.35,211.00 15485.63,32305.14,211.00 15486.59,32304.91,211.00 15487.41,32304.43,211.00 15488.40,32303.51,211.00"/>
    </edge>
    <edge id=":4416_6" function="internal">
        <lane id=":4416_6_0" index="0" disallow="pedestrian" speed="3.65" length="1.44" shape="15484.67,32307.92,211.00 15485.97,32308.52,211.00"/>
    </edge>
    <edge id=":4416_8" function="internal">
        <lane id=":4416_8_0" index="0" disallow="pedestrian" speed="3.65" length="3.23" shape="15485.97,32308.52,211.00 15486.49,32309.25,211.00 15486.22,32310.10,211.00 15485.16,32311.08,211.00"/>
    </edge>
    <edge id=":4437_0" function="internal">
        <lane id=":4437_0_0" index="0" speed="14.00" length="17.91" shape="15320.76,32331.66,203.00 15315.91,32333.49,203.00 15312.70,32335.01,203.00 15309.58,32336.74,203.00 15305.02,32339.23,203.00"/>
        <lane id=":4437_0_1" index="1" speed="14.00" length="17.91" shape="15319.76,32328.62,203.00 15314.94,32330.86,203.00 15312.05,32333.20,203.00 15309.23,32335.71,203.00 15304.64,32338.51,203.00"/>
        <lane id=":4437_0_2" index="2" speed="14.00" length="17.91" shape="15319.76,32328.62,203.00 15314.71,32330.42,203.00 15311.31,32331.78,203.00 15307.97,32333.32,203.00 15303.16,32335.67,203.00"/>
    </edge>
    <edge id=":4437_3" function="internal">
        <lane id=":4437_3_0" index="0" speed="8.44" length="4.03" shape="15319.76,32328.62,203.00 15315.78,32329.22,203.00"/>
    </edge>
    <edge id=":4437_10" function="internal">
        <lane id=":4437_10_0" index="0" speed="8.44" length="13.89" shape="15315.78,32329.22,203.00 15315.46,32329.26,203.00 15312.07,32327.88,203.00 15309.59,32324.46,203.00 15308.01,32319.00,203.00"/>
    </edge>
    <edge id=":4437_4" function="internal">
        <lane id=":4437_4_0" index="0" speed="7.02" length="12.13" shape="15311.16,32318.45,203.00 15312.23,32322.34,203.00 15313.85,32324.81,203.00 15316.02,32325.85,203.00 15318.73,32325.48,203.00"/>
    </edge>
    <edge id=":4437_5" function="internal">
        <lane id=":4437_5_0" index="0" speed="8.94" length="24.16" shape="15311.16,32318.45,203.00 15311.39,32322.91,203.00 15311.15,32328.64,203.00 15310.96,32335.32,203.00 15311.34,32342.59,203.00"/>
    </edge>
    <edge id=":4437_6" function="internal">