<?xml version="1.0" encoding="UTF-8"?>

<!-- generated on 2024-02-21 23:03:20 by Eclipse SUMO netedit Version 1.19.0
<configuration xmlns:xsi="http://www.w3.org/2001/XMLSchema-instance" xsi:noNamespaceSchemaLocation="http://sumo.dlr.de/xsd/neteditConfiguration.xsd">

    <input>
        <sumocfg-file value="C:\Users\mehdi\OneDrive - University of Tennessee\Documents\CUIP Projects\Fraizer street\Final\Scenario2\SUMO_configuration.sumocfg"/>
        <additional-files value=""/>
        <route-files value="C:\Users\mehdi\OneDrive - University of Tennessee\Documents\CUIP Projects\Fraizer street\Final\Scenario2\8th.rou.xml"/>
        <sumo-net-file value="C:\Users\mehdi\OneDrive - University of Tennessee\Documents\CUIP Projects\Fraizer street\Final\Scenario2\left_turn_protected_final.net.xml"/>
    </input>

    <output>
        <output-file value="C:\Users\mehdi\OneDrive - University of Tennessee\Documents\CUIP Projects\Fraizer street\Final\Scenario2\left_turn_protected_final.net.xml"/>
    </output>

    <processing>
        <geometry.min-radius.fix.railways value="false"/>
        <geometry.max-grade.fix value="false"/>
        <offset.disable-normalization value="true"/>
        <lefthand value="0"/>
    </processing>

    <junctions>
        <no-turnarounds value="true"/>
        <junctions.corner-detail value="5"/>
        <junctions.limit-turn-speed value="5.50"/>
        <rectangular-lane-cut value="0"/>
    </junctions>

    <pedestrian>
        <walkingareas value="0"/>
    </pedestrian>

    <netedit>
        <ignore.routeelements value="false"/>
    </netedit>

</configuration>
-->

<net version="1.16" junctionCornerDetail="5" limitTurnSpeed="5.50" xmlns:xsi="http://www.w3.org/2001/XMLSchema-instance" xsi:noNamespaceSchemaLocation="http://sumo.dlr.de/xsd/net_file.xsd">

    <location netOffset="-639371.48,-3848823.33" convBoundary="14784.40,32106.57,15541.36,32689.34" origBoundary="-85.473756,34.767743,-84.942016,35.445713" projParameter="+proj=utm +zone=16 +ellps=WGS84 +datum=WGS84 +units=m +no_defs"/>

    <edge id=":10235_0" function="internal">
        <lane id=":10235_0_0" index="0" speed="3.65" length="4.67" shape="14830.62,32689.68,202.00 14829.59,32690.68,202.00 14828.72,32690.90,202.00 14828.03,32690.35,202.00 14827.50,32689.00,202.00"/>
    </edge>
    <edge id=":10267_0" function="internal">
        <lane id=":10267_0_0" index="0" speed="6.62" length="6.90" shape="15117.30,32508.12,214.00 15117.86,32509.85,214.00 15118.81,32511.17,214.00 15120.16,32512.09,214.00 15121.90,32512.61,214.00"/>
    </edge>
    <edge id=":10276_0" function="internal">
        <lane id=":10276_0_0" index="0" speed="7.00" length="4.73" shape="15254.75,32464.70,209.00 15255.72,32465.42,209.00 15256.78,32465.89,209.00 15257.91,32466.12,209.00 15259.12,32466.10,209.00"/>
    </edge>
    <edge id=":10278_0" function="internal">
        <lane id=":10278_0_0" index="0" disallow="pedestrian" speed="9.42" length="14.56" shape="14953.97,32467.24,203.00 14950.25,32468.23,202.97 14947.33,32470.08,202.94 14945.21,32472.79,202.92 14943.89,32476.36,202.89"/>
    </edge>
    <edge id=":10278_1" function="internal">
        <lane id=":10278_1_0" index="0" speed="13.95" length="19.50" shape="14953.97,32467.24,203.00 14934.70,32470.22,203.00"/>
    </edge>
    <edge id=":10278_2" function="internal">
        <lane id=":10278_2_0" index="0" speed="13.95" length="19.80" shape="14933.55,32463.92,203.00 14953.12,32460.91,203.00"/>
    </edge>
    <edge id=":10278_3" function="internal">
        <lane id=":10278_3_0" index="0" disallow="pedestrian" speed="7.76" length="5.42" shape="14934.12,32467.07,203.00 14939.39,32466.80,202.97 14939.53,32466.86,202.97"/>
    </edge>
    <edge id=":10278_6" function="internal">
        <lane id=":10278_6_0" index="0" disallow="pedestrian" speed="7.76" length="11.99" shape="14939.53,32466.86,202.97 14942.78,32468.26,202.94 14944.27,32471.45,202.92 14943.89,32476.36,202.89"/>
    </edge>
    <edge id=":10278_4" function="internal">
        <lane id=":10278_4_0" index="0" speed="6.18" length="9.33" shape="14940.39,32475.48,202.95 14940.10,32472.78,202.96 14939.06,32471.00,202.97 14937.26,32470.15,202.99 14934.70,32470.22,203.00"/>
    </edge>
    <edge id=":10278_5" function="internal">
        <lane id=":10278_5_0" index="0" speed="10.34" length="21.36" shape="14940.39,32475.48,202.95 14941.33,32469.73,202.96 14943.76,32465.38,202.97 14947.69,32462.44,202.99 14953.12,32460.91,203.00"/>
    </edge>
    <edge id=":10281_0" function="internal">
        <lane id=":10281_0_0" index="0" speed="6.52" length="8.68" shape="15041.98,32460.76,205.11 15041.22,32458.53,205.04 15039.93,32457.04,204.99 15038.10,32456.28,204.93 15035.74,32456.26,204.87"/>
    </edge>
    <edge id=":10281_1" function="internal">
        <lane id=":10281_1_0" index="0" speed="8.73" length="16.15" shape="15041.98,32460.76,205.11 15041.53,32455.69,205.07 15042.31,32451.77,205.05 15044.33,32449.01,205.02 15047.58,32447.40,205.00"/>
    </edge>
    <edge id=":10281_2" function="internal">
        <lane id=":10281_2_0" index="0" speed="6.57" length="8.72" shape="15049.23,32453.58,205.00 15047.06,32454.50,205.03 15045.65,32455.90,205.05 15045.01,32457.79,205.08 15045.13,32460.17,205.11"/>
    </edge>
    <edge id=":10281_3" function="internal">
        <lane id=":10281_3_0" index="0" speed="14.00" length="13.77" shape="15049.23,32453.58,205.00 15045.27,32454.62,204.96 15042.55,32455.24,204.93 15039.79,32455.71,204.91 15035.74,32456.26,204.87"/>
    </edge>
    <edge id=":10281_4" function="internal">
        <lane id=":10281_4_0" index="0" speed="14.00" length="12.96" shape="15034.89,32449.93,204.85 15038.70,32449.40,204.89 15041.29,32448.97,204.92 15043.86,32448.38,204.96 15047.58,32447.40,205.00"/>
    </edge>
    <edge id=":10281_5" function="internal">
        <lane id=":10281_5_0" index="0" speed="8.01" length="3.92" shape="15035.31,32453.10,204.85 15039.02,32453.13,204.92 15039.22,32453.21,204.92"/>
    </edge>
    <edge id=":10281_6" function="internal">
        <lane id=":10281_6_0" index="0" speed="8.01" length="9.71" shape="15039.22,32453.21,204.92 15041.89,32454.31,204.98 15043.93,32456.66,205.04 15045.13,32460.17,205.11"/>
    </edge>
    <edge id=":10286_0" function="internal">
        <lane id=":10286_0_0" index="0" speed="7.16" length="9.48" shape="15087.49,32449.33,210.00 15086.04,32447.12,210.00 15084.27,32445.73,210.00 15082.18,32445.17,210.00 15079.78,32445.44,210.00"/>
    </edge>
    <edge id=":10286_1" function="internal">
        <lane id=":10286_1_0" index="0" speed="8.67" length="16.85" shape="15087.49,32449.33,210.00 15085.67,32444.38,209.94 15085.50,32440.29,209.89 15086.98,32437.06,209.85 15090.10,32434.69,209.80"/>
    </edge>
    <edge id=":10286_2" function="internal">
        <lane id=":10286_2_0" index="0" speed="6.51" length="9.03" shape="15092.92,32440.43,210.00 15090.88,32441.82,210.00 15089.77,32443.54,210.00 15089.60,32445.57,210.00 15090.36,32447.92,210.00"/>
    </edge>
    <edge id=":10286_3" function="internal">
        <lane id=":10286_3_0" index="0" speed="14.00" length="14.11" shape="15092.92,32440.43,210.00 15089.16,32442.27,210.00 15086.53,32443.42,210.00 15083.81,32444.33,210.00 15079.78,32445.44,210.00"/>
    </edge>
    <edge id=":10286_4" function="internal">
        <lane id=":10286_4_0" index="0" speed="14.00" length="12.86" shape="15078.13,32439.26,210.00 15081.80,32438.25,209.94 15084.28,32437.42,209.90 15086.68,32436.36,209.86 15090.10,32434.69,209.80"/>
    </edge>
    <edge id=":10286_5" function="internal">
        <lane id=":10286_5_0" index="0" speed="8.56" length="3.81" shape="15078.95,32442.36,210.00 15082.54,32441.94,210.00 15082.73,32441.99,210.00"/>
    </edge>
    <edge id=":10286_6" function="internal">
        <lane id=":10286_6_0" index="0" speed="8.56" length="10.12" shape="15082.73,32441.99,210.00 15085.64,32442.73,210.00 15088.25,32444.72,210.00 15090.36,32447.92,210.00"/>
    </edge>
    <edge id=":10301_0" function="internal">
        <lane id=":10301_0_0" index="0" speed="6.51" length="9.05" shape="15207.27,32390.56,206.22 15205.87,32388.51,206.22 15204.16,32387.40,206.22 15202.12,32387.23,206.22 15199.77,32387.99,206.22"/>
    </edge>
    <edge id=":10301_1" function="internal">
        <lane id=":10301_1_0" index="0" speed="15.81" length="17.89" shape="15207.27,32390.56,206.22 15205.07,32385.15,206.22 15203.90,32380.72,206.22 15203.00,32376.98,206.22 15201.66,32373.61,206.22"/>
    </edge>
    <edge id=":10301_2" function="internal">
        <lane id=":10301_2_0" index="0" speed="9.15" length="4.02" shape="15210.14,32389.15,206.22 15208.87,32385.33,206.22"/>
    </edge>
    <edge id=":10301_12" function="internal">
        <lane id=":10301_12_0" index="0" speed="9.15" length="14.88" shape="15208.87,32385.33,206.22 15208.47,32384.12,206.22 15208.74,32379.81,206.22 15210.96,32376.22,206.22 15215.13,32373.34,206.22"/>
    </edge>
    <edge id=":10301_3" function="internal">
        <lane id=":10301_3_0" index="0" speed="7.17" length="11.23" shape="15217.93,32379.09,206.22 15214.85,32380.99,206.22 15213.01,32383.06,206.22 15212.39,32385.31,206.22 15213.01,32387.73,206.22"/>
    </edge>
    <edge id=":10301_4" function="internal">
        <lane id=":10301_4_0" index="0" speed="13.95" length="20.23" shape="15217.93,32379.09,206.22 15199.77,32387.99,206.22"/>
    </edge>
    <edge id=":10301_5" function="internal">
        <lane id=":10301_5_0" index="0" speed="8.86" length="5.46" shape="15216.53,32376.22,206.22 15211.64,32377.99,206.22 15211.38,32378.00,206.22"/>
    </edge>
    <edge id=":10301_13" function="internal">
        <lane id=":10301_13_0" index="0" speed="8.86" length="11.48" shape="15211.38,32378.00,206.22 15207.53,32378.15,206.22 15204.20,32376.69,206.22 15201.66,32373.61,206.22"/>
    </edge>
    <edge id=":10301_6" function="internal">
        <lane id=":10301_6_0" index="0" speed="6.75" length="9.43" shape="15207.26,32370.51,206.22 15208.84,32372.66,206.22 15210.68,32373.85,206.22 15212.77,32374.08,206.22 15215.13,32373.34,206.22"/>
    </edge>
    <edge id=":10301_7" function="internal">
        <lane id=":10301_7_0" index="0" speed="15.81" length="17.86" shape="15204.46,32372.06,206.22 15213.01,32387.73,206.22"/>
    </edge>
    <edge id=":10301_8" function="internal">
        <lane id=":10301_8_0" index="0" speed="9.05" length="8.06" shape="15204.46,32372.06,206.22 15206.39,32377.08,206.22 15206.30,32379.77,206.22"/>
    </edge>
    <edge id=":10301_14" function="internal">
        <lane id=":10301_14_0" index="0" speed="9.05" length="11.09" shape="15206.30,32379.77,206.22 15206.25,32381.40,206.22 15204.04,32385.04,206.22 15199.77,32387.99,206.22"/>
    </edge>
    <edge id=":10301_9" function="internal">
        <lane id=":10301_9_0" index="0" speed="7.06" length="11.21" shape="15196.95,32382.25,206.22 15200.04,32380.33,206.22 15201.86,32378.26,206.22 15202.40,32376.02,206.22 15201.66,32373.61,206.22"/>
    </edge>
    <edge id=":10301_10" function="internal">
        <lane id=":10301_10_0" index="0" speed="13.95" length="20.24" shape="15196.95,32382.25,206.22 15215.13,32373.34,206.22"/>
    </edge>
    <edge id=":10301_11" function="internal">
        <lane id=":10301_11_0" index="0" speed="8.68" length="5.56" shape="15198.36,32385.12,206.22 15203.31,32383.30,206.22 15203.60,32383.29,206.22"/>
    </edge>
    <edge id=":10301_15" function="internal">
        <lane id=":10301_15_0" index="0" speed="8.68" length="11.29" shape="15203.60,32383.29,206.22 15207.41,32383.13,206.22 15210.64,32384.61,206.22 15213.01,32387.73,206.22"/>
    </edge>
    <edge id=":10346_0" function="internal">
        <lane id=":10346_0_0" index="0" speed="6.25" length="5.35" shape="15296.83,32254.64,201.06 15296.76,32253.25,201.04 15297.05,32252.00,201.03 15297.71,32250.90,201.02 15298.72,32249.95,201.00"/>
    </edge>
    <edge id=":10346_1" function="internal">
        <lane id=":10346_1_0" index="0" speed="3.65" length="4.67" shape="15296.83,32254.64,201.06 15297.42,32253.32,201.06 15298.14,32252.79,201.05 15298.99,32253.05,201.05 15299.99,32254.09,201.05"/>
    </edge>
    <edge id=":10346_2" function="internal">
        <lane id=":10346_2_0" index="0" speed="4.00" length="1.78" shape="15300.62,32252.53,201.00 15300.28,32252.84,201.01 15300.06,32253.21,201.03 15299.96,32253.63,201.04 15299.99,32254.09,201.05"/>
    </edge>
    <edge id=":10346_3" function="internal">
        <lane id=":10346_3_0" index="0" speed="3.65" length="4.67" shape="15300.62,32252.53,201.00 15299.18,32252.59,201.00 15298.38,32252.18,201.00 15298.23,32251.30,201.00 15298.72,32249.95,201.00"/>
    </edge>
    <edge id=":10350_0" function="internal">
        <lane id=":10350_0_0" index="0" speed="3.91" length="2.50" shape="15378.96,32243.66,202.00 15378.83,32242.99,201.99 15378.51,32242.52,201.97 15378.01,32242.24,201.96 15377.34,32242.16,201.95"/>
    </edge>
    <edge id=":10350_1" function="internal">
        <lane id=":10350_1_0" index="0" speed="3.65" length="4.67" shape="15378.96,32243.66,202.00 15379.69,32242.41,202.00 15380.46,32241.96,202.00 15381.28,32242.31,202.00 15382.16,32243.46,202.00"/>
    </edge>
    <edge id=":10350_2" function="internal">
        <lane id=":10350_2_0" index="0" speed="6.08" length="7.51" shape="15377.27,32238.96,201.95 15379.30,32239.21,201.96 15380.79,32240.04,201.97 15381.75,32241.46,201.99 15382.16,32243.46,202.00"/>
    </edge>
    <edge id=":10350_3" function="internal">
        <lane id=":10350_3_0" index="0" speed="3.65" length="4.67" shape="15377.27,32238.96,201.95 15378.49,32239.74,201.95 15378.90,32240.53,201.95 15378.52,32241.34,201.95 15377.34,32242.16,201.95"/>
    </edge>
    <edge id=":3705_0" function="internal">
        <lane id=":3705_0_0" index="0" speed="10.34" length="20.75" shape="14881.71,32479.83,203.00 14876.07,32481.56,203.00 14872.01,32484.42,203.00 14869.54,32488.41,203.00 14868.65,32493.53,203.00"/>
    </edge>
    <edge id=":3705_1" function="internal">
        <lane id=":3705_1_0" index="0" speed="16.02" length="27.23" shape="14881.71,32479.83,203.00 14874.88,32481.52,203.00 14868.76,32483.81,203.00 14862.80,32486.57,203.00 14856.42,32489.67,203.00"/>
    </edge>
    <edge id=":3705_2" function="internal">
        <lane id=":3705_2_0" index="0" speed="9.50" length="7.05" shape="14881.14,32476.68,203.00 14874.32,32477.16,203.00 14874.11,32477.10,203.00"/>
    </edge>
    <edge id=":3705_12" function="internal">
        <lane id=":3705_12_0" index="0" speed="9.50" length="14.81" shape="14874.11,32477.10,203.00 14869.30,32475.79,203.00 14866.07,32472.57,203.00 14864.64,32467.51,203.00"/>
    </edge>
    <edge id=":3705_3" function="internal">
        <lane id=":3705_3_0" index="0" speed="6.85" length="10.82" shape="14874.20,32466.65,203.00 14874.86,32470.04,203.00 14876.14,32472.32,203.00 14878.05,32473.48,203.00 14880.57,32473.53,203.00"/>
    </edge>
    <edge id=":3705_4" function="internal">
        <lane id=":3705_4_0" index="0" speed="18.77" length="26.79" shape="14871.01,32466.93,203.00 14871.17,32475.29,203.00 14870.34,32481.47,203.00 14869.26,32487.03,203.00 14868.65,32493.53,203.00"/>
    </edge>
    <edge id=":3705_5" function="internal">
        <lane id=":3705_5_0" index="0" speed="12.18" length="25.01" shape="14867.82,32467.22,203.00 14867.46,32473.29,203.00 14865.21,32478.58,203.00 14861.07,32483.07,203.00 14855.04,32486.78,203.00"/>
    </edge>
    <edge id=":3705_6" function="internal">
        <lane id=":3705_6_0" index="0" speed="9.67" length="15.47" shape="14850.93,32478.10,203.00 14855.70,32475.50,203.00 14859.05,32472.92,203.00 14860.96,32470.35,203.00 14861.45,32467.79,203.00"/>
    </edge>
    <edge id=":3705_7" function="internal">
        <lane id=":3705_7_0" index="0" speed="16.02" length="29.39" shape="14852.30,32480.99,203.00 14860.90,32477.43,203.00 14867.69,32475.58,203.00 14873.85,32474.56,203.00 14880.57,32473.53,203.00"/>
    </edge>
    <edge id=":3705_8" function="internal">
        <lane id=":3705_8_0" index="0" speed="8.81" length="11.45" shape="14853.67,32483.89,203.00 14860.33,32481.77,203.00 14864.71,32482.61,203.00"/>
    </edge>
    <edge id=":3705_13" function="internal">
        <lane id=":3705_13_0" index="0" speed="8.81" length="12.13" shape="14864.71,32482.61,203.00 14865.05,32482.67,203.00 14867.82,32486.59,203.00 14868.65,32493.53,203.00"/>
    </edge>
    <edge id=":3705_9" function="internal">
        <lane id=":3705_9_0" index="0" speed="5.74" length="9.18" shape="14862.25,32493.42,203.00 14861.93,32490.72,203.00 14860.85,32489.19,203.00 14859.01,32488.84,203.00 14856.42,32489.67,203.00"/>
    </edge>
    <edge id=":3705_10" function="internal">
        <lane id=":3705_10_0" index="0" speed="18.77" length="25.83" shape="14862.25,32493.42,203.00 14862.32,32486.60,203.00 14862.25,32480.59,203.00 14861.97,32474.59,203.00 14861.45,32467.79,203.00"/>
        <lane id=":3705_10_1" index="1" speed="18.77" length="25.83" shape="14865.45,32493.48,203.00 14865.52,32486.60,203.00 14865.44,32480.48,203.00 14865.16,32474.36,203.00 14864.64,32467.51,203.00"/>
    </edge>
    <edge id=":3739_0" function="internal">
        <lane id=":3739_0_0" index="0" speed="17.21" length="1.19" shape="15497.82,32277.60,209.00 15497.69,32277.25,208.85 15497.68,32276.99,208.75 15497.67,32276.72,208.65 15497.58,32276.35,208.50"/>
        <lane id=":3739_0_1" index="1" speed="17.21" length="1.19" shape="15500.67,32276.14,209.00 15500.60,32275.90,208.86 15500.62,32275.72,208.75 15500.65,32275.53,208.65 15500.60,32275.28,208.50"/>
    </edge>
    <edge id=":3739_2" function="internal">
        <lane id=":3739_2_0" index="0" speed="3.65" length="0.48" shape="15500.67,32276.14,209.00 15500.73,32275.66,209.00"/>
    </edge>
    <edge id=":3739_8" function="internal">
        <lane id=":3739_8_0" index="0" speed="3.65" length="4.19" shape="15500.73,32275.66,209.00 15500.84,32274.71,209.00 15501.37,32273.99,209.00 15502.26,32273.98,209.00 15503.52,32274.68,209.00"/>
    </edge>
    <edge id=":3739_3" function="internal">
        <lane id=":3739_3_0" index="0" speed="17.21" length="0.63" shape="15506.63,32273.15,208.50 15506.37,32273.22,209.00"/>
        <lane id=":3739_3_1" index="1" speed="17.21" length="0.63" shape="15503.62,32274.21,208.50 15503.52,32274.68,209.00"/>
    </edge>
    <edge id=":3739_5" function="internal">
        <lane id=":3739_5_0" index="0" speed="3.65" length="4.67" shape="15503.62,32274.21,208.50 15503.26,32275.61,208.50 15502.64,32276.26,208.50 15501.76,32276.15,208.50 15500.60,32275.28,208.50"/>
    </edge>
    <edge id=":3739_6" function="internal">
        <lane id=":3739_6_0" index="0" speed="5.71" length="9.18" shape="15489.30,32272.43,209.00 15497.58,32276.35,208.50"/>
    </edge>
    <edge id=":3739_7" function="internal">
        <lane id=":3739_7_0" index="0" speed="10.87" length="14.43" shape="15489.30,32272.43,209.00 15491.87,32272.71,209.00 15496.61,32273.27,209.00 15501.24,32273.97,209.00 15503.52,32274.68,209.00"/>
    </edge>
    <edge id=":3740_0" function="internal">
        <lane id=":3740_0_0" index="0" speed="6.79" length="8.35" shape="15513.51,32306.36,213.00 15512.04,32304.89,213.00 15510.31,32304.14,213.00 15508.31,32304.11,213.00 15506.03,32304.81,213.00"/>
    </edge>
    <edge id=":3740_1" function="internal">
        <lane id=":3740_1_0" index="0" speed="17.21" length="12.45" shape="15513.51,32306.36,213.00 15511.33,32303.29,213.00 15509.95,32301.12,213.00 15508.71,32298.85,213.00 15507.00,32295.50,213.00"/>
        <lane id=":3740_1_1" index="1" speed="17.21" length="12.45" shape="15516.10,32304.49,213.00 15514.01,32301.54,213.00 15512.68,32299.44,213.00 15511.50,32297.26,213.00 15509.85,32294.04,213.00"/>
    </edge>
    <edge id=":3740_3" function="internal">
        <lane id=":3740_3_0" index="0" speed="3.65" length="1.44" shape="15516.10,32304.49,213.00 15516.05,32303.05,213.00"/>
    </edge>
    <edge id=":3740_8" function="internal">
        <lane id=":3740_8_0" index="0" speed="3.65" length="3.23" shape="15516.05,32303.05,213.00 15516.46,32302.26,213.00 15517.35,32302.12,213.00 15518.70,32302.62,213.00"/>
    </edge>
    <edge id=":3740_4" function="internal">
        <lane id=":3740_4_0" index="0" speed="17.21" length="11.48" shape="15515.54,32291.12,213.00 15517.06,32294.09,213.00 15518.15,32296.10,213.00 15519.37,32298.03,213.00 15521.29,32300.75,213.00"/>
        <lane id=":3740_4_1" index="1" speed="17.21" length="11.48" shape="15512.69,32292.58,213.00 15514.28,32295.67,213.00 15515.41,32297.77,213.00 15516.69,32299.78,213.00 15518.70,32302.62,213.00"/>
    </edge>
    <edge id=":3740_6" function="internal">
        <lane id=":3740_6_0" index="0" speed="7.69" length="2.24" shape="15512.69,32292.58,213.00 15513.08,32294.78,213.00"/>
    </edge>
    <edge id=":3740_7" function="internal">
        <lane id=":3740_7_0" index="0" speed="3.65" length="1.44" shape="15512.69,32292.58,213.00 15512.53,32294.01,213.00"/>
    </edge>
    <edge id=":3740_9" function="internal">
        <lane id=":3740_9_0" index="0" speed="7.69" length="11.35" shape="15513.08,32294.78,213.00 15513.10,32294.93,213.00 15511.92,32297.26,213.00 15509.13,32299.58,213.00 15504.74,32301.89,213.00"/>
    </edge>
    <edge id=":3740_10" function="internal">
        <lane id=":3740_10_0" index="0" speed="3.65" length="3.23" shape="15512.53,32294.01,213.00 15512.00,32294.73,213.00 15511.11,32294.74,213.00 15509.85,32294.04,213.00"/>
    </edge>
    <edge id=":4137_0" function="internal">
        <lane id=":4137_0_0" index="0" speed="6.82" length="18.17" shape="15526.56,32308.05,216.21 15527.74,32312.38,216.21 15525.59,32315.78,216.21 15521.36,32317.47,216.21 15516.32,32316.63,216.21"/>
    </edge>
    <edge id=":4137_1" function="internal">
        <lane id=":4137_1_0" index="0" speed="3.65" length="4.67" shape="15523.96,32309.92,216.21 15524.02,32311.37,216.21 15523.60,32312.16,216.21 15522.72,32312.30,216.21 15521.37,32311.80,216.21"/>
    </edge>
    <edge id=":4138_0" function="internal">
        <lane id=":4138_0_0" index="0" speed="19.67" length="4.63" shape="15497.52,32276.16,208.50 15495.82,32271.84,208.00"/>
        <lane id=":4138_0_1" index="1" speed="19.67" length="4.63" shape="15500.53,32275.09,208.50 15498.86,32270.86,208.00"/>
    </edge>
    <edge id=":4138_2" function="internal">
        <lane id=":4138_2_0" index="0" speed="3.65" length="1.44" shape="15500.53,32275.09,208.50 15500.89,32273.70,208.50"/>
    </edge>
    <edge id=":4138_8" function="internal">
        <lane id=":4138_8_0" index="0" speed="3.65" length="3.23" shape="15500.89,32273.70,208.50 15501.51,32273.05,208.50 15502.40,32273.16,208.50 15503.55,32274.03,208.50"/>
    </edge>
    <edge id=":4138_3" function="internal">
        <lane id=":4138_3_0" index="0" speed="19.67" length="4.45" shape="15504.95,32268.89,208.00 15506.57,32272.96,208.50"/>
        <lane id=":4138_3_1" index="1" speed="19.67" length="4.45" shape="15501.91,32269.87,208.00 15503.55,32274.03,208.50"/>
    </edge>
    <edge id=":4138_5" function="internal">
        <lane id=":4138_5_0" index="0" speed="3.65" length="1.44" shape="15501.91,32269.87,208.00 15501.51,32271.26,208.00"/>
    </edge>
    <edge id=":4138_9" function="internal">
        <lane id=":4138_9_0" index="0" speed="3.65" length="3.23" shape="15501.51,32271.26,208.00 15500.88,32271.89,208.00 15499.99,32271.75,208.00 15498.86,32270.86,208.00"/>
    </edge>
    <edge id=":4138_6" function="internal">
        <lane id=":4138_6_0" index="0" speed="19.49" length="15.76" shape="15495.62,32285.84,208.00 15496.83,32282.45,208.00 15498.46,32279.24,208.00 15499.48,32275.58,208.00 15498.86,32270.86,208.00"/>
    </edge>
    <edge id=":4138_7" function="internal">
        <lane id=":4138_7_0" index="0" speed="6.95" length="18.83" shape="15495.62,32285.84,208.00 15497.08,32279.67,208.17 15499.12,32274.22,208.32 15501.40,32271.63,208.41 15503.55,32274.03,208.50"/>
    </edge>
    <edge id=":4142_0" function="internal">
        <lane id=":4142_0_0" index="0" speed="3.65" length="4.67" shape="14785.28,32526.83,204.00 14783.83,32526.82,204.00 14783.06,32526.37,204.00 14782.96,32525.48,204.00 14783.52,32524.15,204.00"/>
    </edge>
    <edge id=":4416_0" function="internal">
        <lane id=":4416_0_0" index="0" speed="16.30" length="15.62" shape="15501.09,32312.31,211.00 15497.66,32312.18,211.00 15494.39,32312.59,211.00 15490.61,32313.34,211.00 15485.65,32314.24,211.00"/>
    </edge>
    <edge id=":4416_1" function="internal">
        <lane id=":4416_1_0" index="0" speed="7.69" length="19.35" shape="15501.09,32312.31,211.00 15493.24,32310.86,211.00 15488.51,32308.91,211.00 15486.90,32306.46,211.00 15488.40,32303.51,211.00"/>
    </edge>
    <edge id=":4416_2" function="internal">
        <lane id=":4416_2_0" index="0" speed="16.47" length="14.66" shape="15498.78,32308.02,211.00 15494.93,32310.08,211.00 15492.41,32311.81,211.00 15489.80,32313.21,211.00 15485.65,32314.24,211.00"/>
        <lane id=":4416_2_1" index="1" speed="16.47" length="14.66" shape="15498.25,32304.76,211.00 15494.41,32306.83,211.00 15491.91,32308.60,211.00 15489.30,32310.03,211.00 15485.16,32311.08,211.00"/>
    </edge>
    <edge id=":4416_4" function="internal">
        <lane id=":4416_4_0" index="0" speed="5.81" length="9.30" shape="15498.25,32304.76,211.00 15494.05,32306.06,211.00 15490.01,32306.46,211.00 15489.21,32306.21,211.00"/>
    </edge>
    <edge id=":4416_7" function="internal">
        <lane id=":4416_7_0" index="0" speed="5.81" length="3.99" shape="15489.21,32306.21,211.00 15487.62,32305.70,211.00 15488.40,32303.51,211.00"/>
    </edge>
    <edge id=":4416_5" function="internal">
        <lane id=":4416_5_0" index="0" allow="pedestrian" speed="8.29" length="4.68" shape="15484.26,32305.35,211.00 15485.63,32305.14,211.00 15486.59,32304.91,211.00 15487.41,32304.43,211.00 15488.40,32303.51,211.00"/>
    </edge>
    <edge id=":4416_6" function="internal">
        <lane id=":4416_6_0" index="0" disallow="pedestrian" speed="3.65" length="1.44" shape="15484.67,32307.92,211.00 15485.97,32308.52,211.00"/>
    </edge>
    <edge id=":4416_8" function="internal">
        <lane id=":4416_8_0" index="0" disallow="pedestrian" speed="3.65" length="3.23" shape="15485.97,32308.52,211.00 15486.49,32309.25,211.00 15486.22,32310.10,211.00 15485.16,32311.08,211.00"/>
    </edge>
    <edge id=":4437_0" function="internal">
        <lane id=":4437_0_0" index="0" speed="5.93" length="9.10" shape="15311.28,32340.05,203.00 15310.57,32337.52,203.08 15309.26,32336.11,203.13 15307.36,32335.81,203.19 15304.86,32336.62,203.26"/>
    </edge>
    <edge id=":4437_1" function="internal">
        <lane id=":4437_1_0" index="0" speed="11.41" length="21.13" shape="15311.28,32340.05,203.00 15308.04,32319.17,203.00"/>
    </edge>
    <edge id=":4437_2" function="internal">
        <lane id=":4437_2_0" index="0" speed="9.74" length="17.99" shape="15311.28,32340.05,203.00 15311.18,32334.90,203.00 15312.41,32330.74,203.00 15314.97,32327.59,203.00 15318.85,32325.43,203.00"/>
    </edge>
    <edge id=":4437_3" function="internal">
        <lane id=":4437_3_0" index="0" speed="7.81" length="11.39" shape="15321.08,32331.55,203.00 15317.90,32333.02,203.00 15315.74,32334.86,203.00 15314.59,32337.06,203.00 15314.45,32339.62,203.00"/>
    </edge>
    <edge id=":4437_4" function="internal">
        <lane id=":4437_4_0" index="0" speed="13.95" length="17.20" shape="15321.08,32331.55,203.00 15316.24,32333.00,203.08 15312.83,32333.74,203.13 15309.49,32334.65,203.18 15304.86,32336.62,203.26"/>
        <lane id=":4437_4_1" index="1" speed="13.95" length="17.20" shape="15319.98,32328.54,203.00 15315.05,32330.03,203.08 15311.57,32330.79,203.13 15308.17,32331.73,203.18 15303.46,32333.74,203.26"/>
    </edge>
    <edge id=":4437_6" function="internal">
        <lane id=":4437_6_0" index="0" speed="8.45" length="3.42" shape="15319.98,32328.54,203.00 15316.61,32329.07,203.00"/>
    </edge>
    <edge id=":4437_14" function="internal">
        <lane id=":4437_14_0" index="0" speed="8.45" length="14.53" shape="15316.61,32329.07,203.00 15315.59,32329.23,203.00 15312.13,32327.90,203.00 15309.62,32324.55,203.00 15308.04,32319.17,203.00"/>
    </edge>
    <edge id=":4437_7" function="internal">
        <lane id=":4437_7_0" index="0" speed="6.16" length="9.05" shape="15311.19,32318.62,203.00 15311.98,32321.05,203.00 15313.34,32322.49,203.00 15315.26,32322.95,203.00 15317.76,32322.43,203.00"/>
    </edge>
    <edge id=":4437_8" function="internal">
        <lane id=":4437_8_0" index="0" speed="11.41" length="21.25" shape="15311.19,32318.62,203.00 15314.45,32339.62,203.00"/>
    </edge>
    <edge id=":4437_9" function="internal">
        <lane id=":4437_9_0" index="0" speed="10.14" length="18.39" shape="15311.19,32318.62,203.00 15311.39,32323.49,203.07 15310.17,32327.63,203.13 15307.52,32331.05,203.19 15303.46,32333.74,203.26"/>
    </edge>
    <edge id=":4437_10" function="internal">
        <lane id=":4437_10_0" index="0" speed="8.98" length="14.23" shape="15302.05,32330.87,203.27 15305.20,32328.79,203.20 15307.24,32326.14,203.14 15308.19,32322.94,203.07 15308.04,32319.17,203.00"/>
    </edge>
    <edge id=":4437_11" function="internal">
        <lane id=":4437_11_0" index="0" speed="13.95" length="17.70" shape="15302.05,32330.87,203.27 15306.71,32328.33,203.19 15309.77,32326.32,203.14 15312.90,32324.48,203.08 15317.76,32322.43,203.00"/>
        <lane id=":4437_11_1" index="1" speed="13.95" length="17.70" shape="15303.46,32333.75,203.27 15308.02,32331.25,203.19 15311.02,32329.27,203.14 15314.09,32327.45,203.08 15318.85,32325.43,203.00"/>
    </edge>
    <edge id=":4437_13" function="internal">
        <lane id=":4437_13_0" index="0" speed="7.55" length="4.87" shape="15303.46,32333.75,203.27 15307.73,32332.36,203.19 15308.10,32332.42,203.19"/>
    </edge>
    <edge id=":4437_15" function="internal">