<routes>

  <vType carFollowModel="Krauss"  id="type1" length="5" vClass="passenger"  maxSpeed="15.53288232"  maxSpeedLat="14.00027863"  minGap="1.38582304"  speedFactor="1.72713235" tau="1.82132215" accel="5.463872"  decel="5.14507628" />
  
  <route id="ER1" edges="-2239 -9040 -9045 -E0" />
  <route id="ER2" edges="1656 -9040 -9045 -E0"/>
  <route id="ER3" edges="9039 -9045 -E0"/>
  <route id="ER4" edges="-2239 -9040 -9045 -9052 -9069 -9089 -9092"  color="0,0,255"/>
  <route id="ER5" edges="1656 -9040 -9045 -9052 -9069 -9089 -9092"/>
  <route id="ER6" edges="9039 -9045 -9052 -9069 -9089 -9092"  color="0,1,0"/>
  <route id="ER7" edges="E0 -9052 -9069 -9089 -9092"/>
  <route id="ER8" edges="1656 -9040 -9045 -9052 -9069 9068"/>
  <route id="ER9" edges="-2239 -9040 -9045 -9052 -9069 9068"/>
  <route id="ER10" edges="9039 -9045 -9052 -9069 9068"/>
  <route id="ER11" edges="E0 -9052 -9069 9068"/>
  <route id="ER12" edges="1656 -9040 -9045 -9052 -9069 -E6"/>
  <route id="ER13" edges="-2239 -9040 -9045 -9052 -9069 -E6"/>
  <route id="ER14" edges="9039 -9045 -9052 -9069 -E6"/>
  <route id="ER15" edges="E0 -9052 -9069 -E6"/>
  <route id="WR1" edges="9089 9069 9052 9045 9040 2239" color="1,0,0"/>
  <route id="WR2" edges="E6 9069 9052 9045 9040 9034"/>
  <route id="WR3" edges="-9068 9069 9052 9045 9040 -1656"/>
  <route id="WR4" edges="E0 9045 9040 -1656"/>
  <route id="WR5" edges="9039 9040 2239"/>
  <route id="WR6" edges="9089 9069 9052 9045 -9039"/>
  <route id="WR7" edges="E6 9069 9052 9045 -9039"/>
  <route id="WR8" edges="-9068 9069 9052 9045 -9039"/>
  <route id="WR9" edges="E0 9045 -9039"/>
  <route id="WR10" edges="9089 9069 9052 -E0"/>
  <route id="WR11" edges="-9068 9069 9052 -E0"/>
  <route id="WR12" edges="E6 9069 9052 -E0"/>


  <vehicle id="ER1_0" type="type1" route="ER1" depart="0" />
  <vehicle id="ER2_0" type="type1" route="ER2" depart="0" />
  <vehicle id="ER3_0" type="type1" route="ER3" depart="0" />
  <vehicle id="ER4_0" type="type1" route="ER4" depart="0" />
  <vehicle id="ER5_0" type="type1" route="ER5" depart="0" />
  <vehicle id="ER6_0" type="type1" route="ER6" depart="0" />
  <vehicle id="ER7_0" type="type1" route="ER7" depart="0" />
  <vehicle id="ER8_0" type="type1" route="ER8" depart="0" />
  <vehicle id="ER9_0" type="type1" route="ER9" depart="0" />
  <vehicle id="ER10_0" type="type1" route="ER10" depart="0" />
  <vehicle id="ER11_0" type="type1" route="ER11" depart="0" />
  <vehicle id="ER12_0" type="type1" route="ER12" depart="0" />
  <vehicle id="ER13_0" type="type1" route="ER13" depart="0" />
  <vehicle id="ER14_0" type="type1" route="ER14" depart="0" />
  <vehicle id="ER15_0" type="type1" route="ER15" depart="0" />
  <vehicle id="WR1_0" type="type1" route="WR1" depart="0" />
  <vehicle id="WR2_0" type="type1" route="WR2" depart="0" />
  <vehicle id="WR3_0" type="type1" route="WR3" depart="0" />
  <vehicle id="WR4_0" type="type1" route="WR4" depart="0" />
  <vehicle id="WR5_0" type="type1" route="WR5" depart="0" />
  <vehicle id="WR6_0" type="type1" route="WR6" depart="0" />
  <vehicle id="WR7_0" type="type1" route="WR7" depart="0" />
  <vehicle id="WR8_0" type="type1" route="WR8" depart="0" />
  <vehicle id="WR9_0" type="type1" route="WR9" depart="0" />
  <vehicle id="WR10_0" type="type1" route="WR10" depart="0" />
  <vehicle id="WR11_0" type="type1" route="WR11" depart="0" />
  <vehicle id="WR12_0" type="type1" route="WR12" depart="0" />
  <vehicle id="WR1_1" type="type1" route="WR1" depart="12" />
  <vehicle id="ER4_1" type="type1" route="ER4" depart="14" />
  <vehicle id="WR1_2" type="type1" route="WR1" depart="24" />
  <vehicle id="ER4_2" type="type1" route="ER4" depart="28" />
  <vehicle id="WR1_3" type="type1" route="WR1" depart="36" />
  <vehicle id="ER4_3" type="type1" route="ER4" depart="42" />
  <vehicle id="WR1_4" type="type1" route="WR1" depart="48" />
  <vehicle id="ER5_1" type="type1" route="ER5" depart="50" />
  <vehicle id="ER4_4" type="type1" route="ER4" depart="56" />
  <vehicle id="ER6_1" type="type1" route="ER6" depart="60" />
  <vehicle id="WR1_5" type="type1" route="WR1" depart="60" />
  <vehicle id="WR2_1" type="type1" route="WR2" depart="60" />
  <vehicle id="ER4_5" type="type1" route="ER4" depart="70" />
  <vehicle id="WR1_6" type="type1" route="WR1" depart="72" />
  <vehicle id="WR4_1" type="type1" route="WR4" depart="75" />
  <vehicle id="ER4_6" type="type1" route="ER4" depart="84" />
  <vehicle id="WR1_7" type="type1" route="WR1" depart="84" />
  <vehicle id="WR1_8" type="type1" route="WR1" depart="96" />
  <vehicle id="ER4_7" type="type1" route="ER4" depart="98" />
  <vehicle id="ER5_2" type="type1" route="ER5" depart="100" />
  <vehicle id="ER9_1" type="type1" route="ER9" depart="100" />
  <vehicle id="ER13_1" type="type1" route="ER13" depart="100" />
  <vehicle id="WR3_1" type="type1" route="WR3" depart="100" />
  <vehicle id="WR5_1" type="type1" route="WR5" depart="100" />
  <vehicle id="WR6_1" type="type1" route="WR6" depart="100" />
  <vehicle id="WR1_9" type="type1" route="WR1" depart="108" />
  <vehicle id="ER4_8" type="type1" route="ER4" depart="112" />
  <vehicle id="ER6_2" type="type1" route="ER6" depart="120" />
  <vehicle id="WR1_10" type="type1" route="WR1" depart="120" />
  <vehicle id="WR2_2" type="type1" route="WR2" depart="120" />
  <vehicle id="ER4_9" type="type1" route="ER4" depart="126" />
  <vehicle id="WR1_11" type="type1" route="WR1" depart="132" />
  <vehicle id="ER4_10" type="type1" route="ER4" depart="140" />
  <vehicle id="WR1_12" type="type1" route="WR1" depart="144" />
  <vehicle id="ER1_1" type="type1" route="ER1" depart="150" />
  <vehicle id="ER5_3" type="type1" route="ER5" depart="150" />
  <vehicle id="ER7_1" type="type1" route="ER7" depart="150" />
  <vehicle id="WR4_2" type="type1" route="WR4" depart="150" />
  <vehicle id="WR10_1" type="type1" route="WR10" depart="150" />
  <vehicle id="ER4_11" type="type1" route="ER4" depart="154" />
  <vehicle id="WR1_13" type="type1" route="WR1" depart="156" />
  <vehicle id="ER4_12" type="type1" route="ER4" depart="168" />
  <vehicle id="WR1_14" type="type1" route="WR1" depart="168" />
  <vehicle id="ER6_3" type="type1" route="ER6" depart="180" />
  <vehicle id="WR1_15" type="type1" route="WR1" depart="180" />
  <vehicle id="WR2_3" type="type1" route="WR2" depart="180" />
  <vehicle id="ER4_13" type="type1" route="ER4" depart="182" />
  <vehicle id="WR1_16" type="type1" route="WR1" depart="192" />
  <vehicle id="ER4_14" type="type1" route="ER4" depart="196" />
  <vehicle id="ER5_4" type="type1" route="ER5" depart="200" />
  <vehicle id="ER9_2" type="type1" route="ER9" depart="200" />
  <vehicle id="ER13_2" type="type1" route="ER13" depart="200" />
  <vehicle id="WR3_2" type="type1" route="WR3" depart="200" />
  <vehicle id="WR5_2" type="type1" route="WR5" depart="200" />
  <vehicle id="WR6_2" type="type1" route="WR6" depart="200" />
  <vehicle id="WR1_17" type="type1" route="WR1" depart="204" />
  <vehicle id="ER4_15" type="type1" route="ER4" depart="210" />
  <vehicle id="WR1_18" type="type1" route="WR1" depart="216" />
  <vehicle id="ER4_16" type="type1" route="ER4" depart="224" />
  <vehicle id="WR4_3" type="type1" route="WR4" depart="225" />
  <vehicle id="WR1_19" type="type1" route="WR1" depart="228" />
  <vehicle id="ER4_17" type="type1" route="ER4" depart="238" />
  <vehicle id="ER6_4" type="type1" route="ER6" depart="240" />
  <vehicle id="WR1_20" type="type1" route="WR1" depart="240" />
  <vehicle id="WR2_4" type="type1" route="WR2" depart="240" />
  <vehicle id="ER5_5" type="type1" route="ER5" depart="250" />
  <vehicle id="ER4_18" type="type1" route="ER4" depart="252" />
  <vehicle id="WR1_21" type="type1" route="WR1" depart="252" />
  <vehicle id="WR1_22" type="type1" route="WR1" depart="264" />
  <vehicle id="ER4_19" type="type1" route="ER4" depart="266" />
  <vehicle id="WR1_23" type="type1" route="WR1" depart="276" />
  <vehicle id="ER4_20" type="type1" route="ER4" depart="280" />
  <vehicle id="WR1_24" type="type1" route="WR1" depart="288" />
  <vehicle id="ER4_21" type="type1" route="ER4" depart="294" />
  <vehicle id="ER1_2" type="type1" route="ER1" depart="300" />
  <vehicle id="ER2_1" type="type1" route="ER2" depart="300" />
  <vehicle id="ER3_1" type="type1" route="ER3" depart="300" />
  <vehicle id="ER5_6" type="type1" route="ER5" depart="300" />
  <vehicle id="ER6_5" type="type1" route="ER6" depart="300" />
  <vehicle id="ER7_2" type="type1" route="ER7" depart="300" />
  <vehicle id="ER8_1" type="type1" route="ER8" depart="300" />
  <vehicle id="ER9_3" type="type1" route="ER9" depart="300" />
  <vehicle id="ER10_1" type="type1" route="ER10" depart="300" />
  <vehicle id="ER11_1" type="type1" route="ER11" depart="300" />
  <vehicle id="ER12_1" type="type1" route="ER12" depart="300" />
  <vehicle id="ER13_3" type="type1" route="ER13" depart="300" />
  <vehicle id="ER14_1" type="type1" route="ER14" depart="300" />
  <vehicle id="ER15_1" type="type1" route="ER15" depart="300" />
  <vehicle id="WR1_25" type="type1" route="WR1" depart="300" />
  <vehicle id="WR2_5" type="type1" route="WR2" depart="300" />
  <vehicle id="WR3_3" type="type1" route="WR3" depart="300" />
  <vehicle id="WR4_4" type="type1" route="WR4" depart="300" />
  <vehicle id="WR5_3" type="type1" route="WR5" depart="300" />
  <vehicle id="WR6_3" type="type1" route="WR6" depart="300" />
  <vehicle id="WR7_1" type="type1" route="WR7" depart="300" />
  <vehicle id="WR8_1" type="type1" route="WR8" depart="300" />
  <vehicle id="WR9_1" type="type1" route="WR9" depart="300" />
  <vehicle id="WR10_2" type="type1" route="WR10" depart="300" />
  <vehicle id="WR11_1" type="type1" route="WR11" depart="300" />
  <vehicle id="WR12_1" type="type1" route="WR12" depart="300" />
  <vehicle id="ER4_22" type="type1" route="ER4" depart="308" />
  <vehicle id="WR1_26" type="type1" route="WR1" depart="312" />
  <vehicle id="ER4_23" type="type1" route="ER4" depart="322" />
  <vehicle id="WR1_27" type="type1" route="WR1" depart="324" />
  <vehicle id="WR1_28" type="type1" route="WR1" depart="336" />
  <vehicle id="ER4_24" type="type1" route="ER4" depart="337" />
  <vehicle id="ER5_7" type="type1" route="ER5" depart="343" />
  <vehicle id="WR1_29" type="type1" route="WR1" depart="348" />
  <vehicle id="ER4_25" type="type1" route="ER4" depart="352" />
  <vehicle id="ER6_6" type="type1" route="ER6" depart="360" />
  <vehicle id="WR1_30" type="type1" route="WR1" depart="360" />
  <vehicle id="ER4_26" type="type1" route="ER4" depart="367" />
  <vehicle id="WR1_31" type="type1" route="WR1" depart="372" />
  <vehicle id="WR2_6" type="type1" route="WR2" depart="375" />
  <vehicle id="WR4_5" type="type1" route="WR4" depart="375" />
  <vehicle id="ER4_27" type="type1" route="ER4" depart="382" />
  <vehicle id="WR1_32" type="type1" route="WR1" depart="384" />
  <vehicle id="ER5_8" type="type1" route="ER5" depart="386" />
  <vehicle id="WR1_33" type="type1" route="WR1" depart="396" />
  <vehicle id="ER4_28" type="type1" route="ER4" depart="397" />
  <vehicle id="WR3_4" type="type1" route="WR3" depart="400" />
  <vehicle id="WR6_4" type="type1" route="WR6" depart="400" />
  <vehicle id="WR1_34" type="type1" route="WR1" depart="408" />
  <vehicle id="ER4_29" type="type1" route="ER4" depart="412" />
  <vehicle id="ER6_7" type="type1" route="ER6" depart="420" />
  <vehicle id="WR1_35" type="type1" route="WR1" depart="420" />
  <vehicle id="ER4_30" type="type1" route="ER4" depart="427" />
  <vehicle id="ER5_9" type="type1" route="ER5" depart="429" />
  <vehicle id="WR1_36" type="type1" route="WR1" depart="432" />
  <vehicle id="ER4_31" type="type1" route="ER4" depart="442" />
  <vehicle id="WR1_37" type="type1" route="WR1" depart="444" />
  <vehicle id="ER1_3" type="type1" route="ER1" depart="450" />
  <vehicle id="ER7_3" type="type1" route="ER7" depart="450" />
  <vehicle id="ER9_4" type="type1" route="ER9" depart="450" />
  <vehicle id="ER13_4" type="type1" route="ER13" depart="450" />
  <vehicle id="WR2_7" type="type1" route="WR2" depart="450" />
  <vehicle id="WR4_6" type="type1" route="WR4" depart="450" />
  <vehicle id="WR5_4" type="type1" route="WR5" depart="450" />
  <vehicle id="WR10_3" type="type1" route="WR10" depart="450" />
  <vehicle id="WR1_38" type="type1" route="WR1" depart="456" />
  <vehicle id="ER4_32" type="type1" route="ER4" depart="457" />
  <vehicle id="WR1_39" type="type1" route="WR1" depart="468" />
  <vehicle id="ER4_33" type="type1" route="ER4" depart="472" />
  <vehicle id="ER5_10" type="type1" route="ER5" depart="472" />
  <vehicle id="ER6_8" type="type1" route="ER6" depart="480" />
  <vehicle id="WR1_40" type="type1" route="WR1" depart="480" />
  <vehicle id="ER4_34" type="type1" route="ER4" depart="487" />
  <vehicle id="WR1_41" type="type1" route="WR1" depart="492" />
  <vehicle id="WR3_5" type="type1" route="WR3" depart="500" />
  <vehicle id="WR6_5" type="type1" route="WR6" depart="500" />
  <vehicle id="ER4_35" type="type1" route="ER4" depart="502" />
  <vehicle id="WR1_42" type="type1" route="WR1" depart="504" />
  <vehicle id="ER5_11" type="type1" route="ER5" depart="515" />
  <vehicle id="WR1_43" type="type1" route="WR1" depart="516" />
  <vehicle id="ER4_36" type="type1" route="ER4" depart="517" />
  <vehicle id="WR2_8" type="type1" route="WR2" depart="525" />
  <vehicle id="WR4_7" type="type1" route="WR4" depart="525" />
  <vehicle id="WR1_44" type="type1" route="WR1" depart="528" />
  <vehicle id="ER4_37" type="type1" route="ER4" depart="532" />
  <vehicle id="ER6_9" type="type1" route="ER6" depart="540" />
  <vehicle id="WR1_45" type="type1" route="WR1" depart="540" />
  <vehicle id="ER4_38" type="type1" route="ER4" depart="547" />
  <vehicle id="WR1_46" type="type1" route="WR1" depart="552" />
  <vehicle id="ER5_12" type="type1" route="ER5" depart="558" />
  <vehicle id="ER4_39" type="type1" route="ER4" depart="562" />
  <vehicle id="WR1_47" type="type1" route="WR1" depart="564" />
  <vehicle id="WR1_48" type="type1" route="WR1" depart="576" />
  <vehicle id="ER4_40" type="type1" route="ER4" depart="577" />
  <vehicle id="WR1_49" type="type1" route="WR1" depart="588" />
  <vehicle id="ER4_41" type="type1" route="ER4" depart="592" />
  <vehicle id="ER1_4" type="type1" route="ER1" depart="600" />
  <vehicle id="ER2_2" type="type1" route="ER2" depart="600" />
  <vehicle id="ER3_2" type="type1" route="ER3" depart="600" />
  <vehicle id="ER6_10" type="type1" route="ER6" depart="600" />
  <vehicle id="ER7_4" type="type1" route="ER7" depart="600" />
  <vehicle id="ER8_2" type="type1" route="ER8" depart="600" />
  <vehicle id="ER9_5" type="type1" route="ER9" depart="600" />
  <vehicle id="ER10_2" type="type1" route="ER10" depart="600" />
  <vehicle id="ER11_2" type="type1" route="ER11" depart="600" />
  <vehicle id="ER12_2" type="type1" route="ER12" depart="600" />
  <vehicle id="ER13_5" type="type1" route="ER13" depart="600" />
  <vehicle id="ER14_2" type="type1" route="ER14" depart="600" />
  <vehicle id="ER15_2" type="type1" route="ER15" depart="600" />
  <vehicle id="WR1_50" type="type1" route="WR1" depart="600" />
  <vehicle id="WR2_9" type="type1" route="WR2" depart="600" />
  <vehicle id="WR3_6" type="type1" route="WR3" depart="600" />
  <vehicle id="WR4_8" type="type1" route="WR4" depart="600" />
  <vehicle id="WR5_5" type="type1" route="WR5" depart="600" />
  <vehicle id="WR6_6" type="type1" route="WR6" depart="600" />
  <vehicle id="WR7_2" type="type1" route="WR7" depart="600" />
  <vehicle id="WR8_2" type="type1" route="WR8" depart="600" />
  <vehicle id="WR9_2" type="type1" route="WR9" depart="600" />
  <vehicle id="WR10_4" type="type1" route="WR10" depart="600" />
  <vehicle id="WR11_2" type="type1" route="WR11" depart="600" />
  <vehicle id="WR12_2" type="type1" route="WR12" depart="600" />
  <vehicle id="ER5_13" type="type1" route="ER5" depart="601" />
  <vehicle id="ER4_42" type="type1" route="ER4" depart="607" />
  <vehicle id="WR1_51" type="type1" route="WR1" depart="612" />
  <vehicle id="ER4_43" type="type1" route="ER4" depart="622" />
  <vehicle id="WR1_52" type="type1" route="WR1" depart="624" />
  <vehicle id="WR1_53" type="type1" route="WR1" depart="635" />
  <vehicle id="ER4_44" type="type1" route="ER4" depart="636" />
  <vehicle id="WR1_54" type="type1" route="WR1" depart="646" />
  <vehicle id="ER4_45" type="type1" route="ER4" depart="650" />
  <vehicle id="ER5_14" type="type1" route="ER5" depart="651" />
  <vehicle id="WR1_55" type="type1" route="WR1" depart="657" />
  <vehicle id="ER6_11" type="type1" route="ER6" depart="660" />
  <vehicle id="WR2_10" type="type1" route="WR2" depart="660" />
  <vehicle id="ER4_46" type="type1" route="ER4" depart="664" />
  <vehicle id="WR1_56" type="type1" route="WR1" depart="668" />
  <vehicle id="WR4_9" type="type1" route="WR4" depart="675" />
  <vehicle id="ER4_47" type="type1" route="ER4" depart="678" />
  <vehicle id="WR1_57" type="type1" route="WR1" depart="679" />
  <vehicle id="WR1_58" type="type1" route="WR1" depart="690" />
  <vehicle id="ER4_48" type="type1" route="ER4" depart="692" />
  <vehicle id="WR3_7" type="type1" route="WR3" depart="700" />
  <vehicle id="WR5_6" type="type1" route="WR5" depart="700" />
  <vehicle id="WR6_7" type="type1" route="WR6" depart="700" />
  <vehicle id="ER5_15" type="type1" route="ER5" depart="701" />
  <vehicle id="WR1_59" type="type1" route="WR1" depart="701" />
  <vehicle id="ER4_49" type="type1" route="ER4" depart="706" />
  <vehicle id="WR1_60" type="type1" route="WR1" depart="712" />
  <vehicle id="ER4_50" type="type1" route="ER4" depart="720" />
  <vehicle id="ER6_12" type="type1" route="ER6" depart="720" />
  <vehicle id="WR2_11" type="type1" route="WR2" depart="720" />
  <vehicle id="WR1_61" type="type1" route="WR1" depart="723" />
  <vehicle id="ER4_51" type="type1" route="ER4" depart="734" />
  <vehicle id="WR1_62" type="type1" route="WR1" depart="734" />
  <vehicle id="WR1_63" type="type1" route="WR1" depart="745" />
  <vehicle id="ER4_52" type="type1" route="ER4" depart="748" />
  <vehicle id="ER1_5" type="type1" route="ER1" depart="750" />
  <vehicle id="ER7_5" type="type1" route="ER7" depart="750" />
  <vehicle id="ER9_6" type="type1" route="ER9" depart="750" />
  <vehicle id="ER13_6" type="type1" route="ER13" depart="750" />
  <vehicle id="WR4_10" type="type1" route="WR4" depart="750" />
  <vehicle id="WR10_5" type="type1" route="WR10" depart="750" />
  <vehicle id="ER5_16" type="type1" route="ER5" depart="751" />
  <vehicle id="WR1_64" type="type1" route="WR1" depart="756" />
  <vehicle id="ER4_53" type="type1" route="ER4" depart="762" />
  <vehicle id="WR1_65" type="type1" route="WR1" depart="767" />
  <vehicle id="ER4_54" type="type1" route="ER4" depart="776" />
  <vehicle id="WR1_66" type="type1" route="WR1" depart="778" />
  <vehicle id="ER6_13" type="type1" route="ER6" depart="780" />
  <vehicle id="WR2_12" type="type1" route="WR2" depart="780" />
  <vehicle id="WR1_67" type="type1" route="WR1" depart="789" />
  <vehicle id="ER4_55" type="type1" route="ER4" depart="790" />
  <vehicle id="WR1_68" type="type1" route="WR1" depart="800" />
  <vehicle id="WR3_8" type="type1" route="WR3" depart="800" />
  <vehicle id="WR5_7" type="type1" route="WR5" depart="800" />
  <vehicle id="WR6_8" type="type1" route="WR6" depart="800" />
  <vehicle id="ER5_17" type="type1" route="ER5" depart="801" />
  <vehicle id="ER4_56" type="type1" route="ER4" depart="804" />
  <vehicle id="WR1_69" type="type1" route="WR1" depart="811" />
  <vehicle id="ER4_57" type="type1" route="ER4" depart="818" />
  <vehicle id="WR1_70" type="type1" route="WR1" depart="822" />
  <vehicle id="WR4_11" type="type1" route="WR4" depart="825" />
  <vehicle id="ER4_58" type="type1" route="ER4" depart="832" />
  <vehicle id="WR1_71" type="type1" route="WR1" depart="833" />
  <vehicle id="ER6_14" type="type1" route="ER6" depart="840" />
  <vehicle id="WR2_13" type="type1" route="WR2" depart="840" />
  <vehicle id="WR1_72" type="type1" route="WR1" depart="844" />
  <vehicle id="ER4_59" type="type1" route="ER4" depart="846" />
  <vehicle id="ER5_18" type="type1" route="ER5" depart="851" />
  <vehicle id="WR1_73" type="type1" route="WR1" depart="855" />
  <vehicle id="ER4_60" type="type1" route="ER4" depart="860" />
  <vehicle id="WR1_74" type="type1" route="WR1" depart="866" />
  <vehicle id="ER4_61" type="type1" route="ER4" depart="874" />
  <vehicle id="WR1_75" type="type1" route="WR1" depart="877" />
  <vehicle id="ER4_62" type="type1" route="ER4" depart="888" />
  <vehicle id="WR1_76" type="type1" route="WR1" depart="888" />
  <vehicle id="WR1_77" type="type1" route="WR1" depart="899" />
  <vehicle id="ER1_6" type="type1" route="ER1" depart="900" />
  <vehicle id="ER2_3" type="type1" route="ER2" depart="900" />
  <vehicle id="ER3_3" type="type1" route="ER3" depart="900" />
  <vehicle id="ER6_15" type="type1" route="ER6" depart="900" />
  <vehicle id="ER7_6" type="type1" route="ER7" depart="900" />
  <vehicle id="ER8_3" type="type1" route="ER8" depart="900" />
  <vehicle id="ER9_7" type="type1" route="ER9" depart="900" />
  <vehicle id="ER10_3" type="type1" route="ER10" depart="900" />
  <vehicle id="ER12_3" type="type1" route="ER12" depart="900" />
  <vehicle id="ER13_7" type="type1" route="ER13" depart="900" />
  <vehicle id="ER14_3" type="type1" route="ER14" depart="900" />
  <vehicle id="ER15_3" type="type1" route="ER15" depart="900" />
  <vehicle id="WR2_14" type="type1" route="WR2" depart="900" />
  <vehicle id="WR3_9" type="type1" route="WR3" depart="900" />
  <vehicle id="WR4_12" type="type1" route="WR4" depart="900" />
  <vehicle id="WR5_8" type="type1" route="WR5" depart="900" />
  <vehicle id="WR6_9" type="type1" route="WR6" depart="900" />
  <vehicle id="WR7_3" type="type1" route="WR7" depart="900" />
  <vehicle id="WR8_3" type="type1" route="WR8" depart="900" />
  <vehicle id="WR9_3" type="type1" route="WR9" depart="900" />
  <vehicle id="WR10_6" type="type1" route="WR10" depart="900" />
  <vehicle id="WR11_3" type="type1" route="WR11" depart="900" />
  <vehicle id="WR12_3" type="type1" route="WR12" depart="900" />
  <vehicle id="ER5_19" type="type1" route="ER5" depart="901" />
  <vehicle id="ER4_63" type="type1" route="ER4" depart="902" />
  <vehicle id="WR1_78" type="type1" route="WR1" depart="910" />
  <vehicle id="ER4_64" type="type1" route="ER4" depart="916" />
  <vehicle id="WR1_79" type="type1" route="WR1" depart="921" />
  <vehicle id="ER4_65" type="type1" route="ER4" depart="930" />
  <vehicle id="WR1_80" type="type1" route="WR1" depart="932" />
  <vehicle id="WR1_81" type="type1" route="WR1" depart="943" />
  <vehicle id="ER4_66" type="type1" route="ER4" depart="944" />
  <vehicle id="ER5_20" type="type1" route="ER5" depart="951" />
  <vehicle id="WR1_82" type="type1" route="WR1" depart="954" />
  <vehicle id="ER4_67" type="type1" route="ER4" depart="958" />
  <vehicle id="ER6_16" type="type1" route="ER6" depart="960" />
  <vehicle id="WR1_83" type="type1" route="WR1" depart="965" />
  <vehicle id="ER4_68" type="type1" route="ER4" depart="972" />
  <vehicle id="WR2_15" type="type1" route="WR2" depart="975" />
  <vehicle id="WR4_13" type="type1" route="WR4" depart="975" />
  <vehicle id="WR1_84" type="type1" route="WR1" depart="976" />
  <vehicle id="ER4_69" type="type1" route="ER4" depart="986" />
  <vehicle id="WR1_85" type="type1" route="WR1" depart="987" />
  <vehicle id="WR1_86" type="type1" route="WR1" depart="998" />
  <vehicle id="ER4_70" type="type1" route="ER4" depart="1000" />
  <vehicle id="WR3_10" type="type1" route="WR3" depart="1000" />
  <vehicle id="WR6_10" type="type1" route="WR6" depart="1000" />
  <vehicle id="ER5_21" type="type1" route="ER5" depart="1001" />
  <vehicle id="WR1_87" type="type1" route="WR1" depart="1009" />
  <vehicle id="ER4_71" type="type1" route="ER4" depart="1014" />
  <vehicle id="ER6_17" type="type1" route="ER6" depart="1020" />
  <vehicle id="WR1_88" type="type1" route="WR1" depart="1020" />
  <vehicle id="ER4_72" type="type1" route="ER4" depart="1028" />
  <vehicle id="WR1_89" type="type1" route="WR1" depart="1031" />
  <vehicle id="ER4_73" type="type1" route="ER4" depart="1042" />
  <vehicle id="WR1_90" type="type1" route="WR1" depart="1042" />
  <vehicle id="ER1_7" type="type1" route="ER1" depart="1050" />
  <vehicle id="ER7_7" type="type1" route="ER7" depart="1050" />
  <vehicle id="ER9_8" type="type1" route="ER9" depart="1050" />
  <vehicle id="ER13_8" type="type1" route="ER13" depart="1050" />
  <vehicle id="WR2_16" type="type1" route="WR2" depart="1050" />
  <vehicle id="WR4_14" type="type1" route="WR4" depart="1050" />
  <vehicle id="WR5_9" type="type1" route="WR5" depart="1050" />
  <vehicle id="WR10_7" type="type1" route="WR10" depart="1050" />
  <vehicle id="ER5_22" type="type1" route="ER5" depart="1051" />
  <vehicle id="WR1_91" type="type1" route="WR1" depart="1053" />
  <vehicle id="ER4_74" type="type1" route="ER4" depart="1056" />
  <vehicle id="WR1_92" type="type1" route="WR1" depart="1064" />
  <vehicle id="ER4_75" type="type1" route="ER4" depart="1070" />
  <vehicle id="WR1_93" type="type1" route="WR1" depart="1075" />
  <vehicle id="ER6_18" type="type1" route="ER6" depart="1080" />
  <vehicle id="ER4_76" type="type1" route="ER4" depart="1084" />
  <vehicle id="WR1_94" type="type1" route="WR1" depart="1086" />
  <vehicle id="WR1_95" type="type1" route="WR1" depart="1097" />
  <vehicle id="ER4_77" type="type1" route="ER4" depart="1098" />
  <vehicle id="WR3_11" type="type1" route="WR3" depart="1100" />
  <vehicle id="WR6_11" type="type1" route="WR6" depart="1100" />
  <vehicle id="ER5_23" type="type1" route="ER5" depart="1101" />
  <vehicle id="WR1_96" type="type1" route="WR1" depart="1108" />
  <vehicle id="ER4_78" type="type1" route="ER4" depart="1112" />
  <vehicle id="WR1_97" type="type1" route="WR1" depart="1119" />
  <vehicle id="WR2_17" type="type1" route="WR2" depart="1125" />
  <vehicle id="WR4_15" type="type1" route="WR4" depart="1125" />
  <vehicle id="ER4_79" type="type1" route="ER4" depart="1126" />
  <vehicle id="WR1_98" type="type1" route="WR1" depart="1130" />
  <vehicle id="ER4_80" type="type1" route="ER4" depart="1140" />
  <vehicle id="ER6_19" type="type1" route="ER6" depart="1140" />
  <vehicle id="WR1_99" type="type1" route="WR1" depart="1141" />
  <vehicle id="ER5_24" type="type1" route="ER5" depart="1151" />
  <vehicle id="WR1_100" type="type1" route="WR1" depart="1152" />
  <vehicle id="ER4_81" type="type1" route="ER4" depart="1154" />
  <vehicle id="WR1_101" type="type1" route="WR1" depart="1163" />
  <vehicle id="ER4_82" type="type1" route="ER4" depart="1168" />
  <vehicle id="WR1_102" type="type1" route="WR1" depart="1174" />
  <vehicle id="ER4_83" type="type1" route="ER4" depart="1182" />
  <vehicle id="WR1_103" type="type1" route="WR1" depart="1185" />
  <vehicle id="ER4_84" type="type1" route="ER4" depart="1196" />
  <vehicle id="WR1_104" type="type1" route="WR1" depart="1196" />
  <vehicle id="ER1_8" type="type1" route="ER1" depart="1200" />
  <vehicle id="ER2_4" type="type1" route="ER2" depart="1200" />
  <vehicle id="ER3_4" type="type1" route="ER3" depart="1200" />
  <vehicle id="ER6_20" type="type1" route="ER6" depart="1200" />
  <vehicle id="ER7_8" type="type1" route="ER7" depart="1200" />
  <vehicle id="ER8_4" type="type1" route="ER8" depart="1200" />
  <vehicle id="ER9_9" type="type1" route="ER9" depart="1200" />
  <vehicle id="ER10_4" type="type1" route="ER10" depart="1200" />
  <vehicle id="ER12_4" type="type1" route="ER12" depart="1200" />
  <vehicle id="ER13_9" type="type1" route="ER13" depart="1200" />
  <vehicle id="ER14_4" type="type1" route="ER14" depart="1200" />
  <vehicle id="ER15_4" type="type1" route="ER15" depart="1200" />
  <vehicle id="WR2_18" type="type1" route="WR2" depart="1200" />
  <vehicle id="WR3_12" type="type1" route="WR3" depart="1200" />
  <vehicle id="WR4_16" type="type1" route="WR4" depart="1200" />
  <vehicle id="WR5_10" type="type1" route="WR5" depart="1200" />
  <vehicle id="WR6_12" type="type1" route="WR6" depart="1200" />
  <vehicle id="WR7_4" type="type1" route="WR7" depart="1200" />
  <vehicle id="WR8_4" type="type1" route="WR8" depart="1200" />
  <vehicle id="WR9_4" type="type1" route="WR9" depart="1200" />
  <vehicle id="WR10_8" type="type1" route="WR10" depart="1200" />
  <vehicle id="WR11_4" type="type1" route="WR11" depart="1200" />
  <vehicle id="WR12_4" type="type1" route="WR12" depart="1200" />
  <vehicle id="ER5_25" type="type1" route="ER5" depart="1201" />
  <vehicle id="WR1_105" type="type1" route="WR1" depart="1207" />
  <vehicle id="ER4_85" type="type1" route="ER4" depart="1210" />
  <vehicle id="WR1_106" type="type1" route="WR1" depart="1218" />
  <vehicle id="ER4_86" type="type1" route="ER4" depart="1224" />
  <vehicle id="WR1_107" type="type1" route="WR1" depart="1229" />
  <vehicle id="ER5_26" type="type1" route="ER5" depart="1235" />
  <vehicle id="ER4_87" type="type1" route="ER4" depart="1238" />
  <vehicle id="WR1_108" type="type1" route="WR1" depart="1240" />
  <vehicle id="ER4_88" type="type1" route="ER4" depart="1250" />
  <vehicle id="WR1_109" type="type1" route="WR1" depart="1250" />
  <vehicle id="ER6_21" type="type1" route="ER6" depart="1260" />
  <vehicle id="WR1_110" type="type1" route="WR1" depart="1260" />
  <vehicle id="ER4_89" type="type1" route="ER4" depart="1262" />
  <vehicle id="ER5_27" type="type1" route="ER5" depart="1269" />
  <vehicle id="WR1_111" type="type1" route="WR1" depart="1270" />
  <vehicle id="ER4_90" type="type1" route="ER4" depart="1274" />
  <vehicle id="WR4_17" type="type1" route="WR4" depart="1275" />
  <vehicle id="WR6_13" type="type1" route="WR6" depart="1275" />
  <vehicle id="WR1_112" type="type1" route="WR1" depart="1280" />
  <vehicle id="ER4_91" type="type1" route="ER4" depart="1286" />
  <vehicle id="WR1_113" type="type1" route="WR1" depart="1290" />
  <vehicle id="ER4_92" type="type1" route="ER4" depart="1298" />